          89
Lattice="  21.1372   0.0000   0.0000   0.0000  21.1372   0.0000   0.0000   0.0000  21.1372 " ConfE="      -3844.7370" DelE="          0.0000"
Ni    -5.28720184   -0.00003631    0.72161259       1
Ni    -1.78311231    3.54408642    4.25694199       2
Ni    -1.81585957   -3.56679405   -2.81841097       3
Ni    -1.78310594   -3.54415505    4.25693335       4
Ni    -1.81585200    3.56670971   -2.81840579       5
Ni    -3.54927060    1.77769896    4.25665847       6
Ni    -3.55133260    3.54588584    2.49013117       7
Ni    -3.54926775   -1.77776929    4.25665418       8
Ni    -3.53048782    3.52488032   -1.05205168       9
Ni    -3.53048748   -3.52495674   -1.05205550      10
Ni    -3.57284496   -1.81086664   -2.81864588      11
Ni    -3.55132723   -3.54595672    2.49012424      12
Ni    -3.57284315    1.81078661   -2.81864203      13
Ni     5.27574717   -0.00003645   -2.82575683      14
Ni     5.29883742   -3.54454666    0.71257332      15
Ni     5.29884205    3.54447497    0.71257880      16
Ni     5.31984751   -0.00003339    4.27126979      17
Ni     1.77515021    5.30755309    2.48735087      18
Ni     1.75708136    1.76215318    5.99016609      19
Ni     1.78842244    1.79410782   -4.60709752      20
Ni     1.77514407   -5.30762108    2.48734077      21
Ni     1.78842320   -1.79418500   -4.60709688      22
Ni     1.76488027   -5.30378580   -1.05162311      23
Ni     1.76488369    5.30371055   -1.05161969      24
Ni     1.75708063   -1.76222083    5.99016268      25
Ni    -0.00489798   -0.00003363    5.98282284      26
Ni    -0.00520859    5.28161579    0.72223039      27
Ni    -0.00520911   -5.28169324    0.72222226      28
Ni    -0.00628658   -0.00004222   -4.54724262      29
Ni     3.53856532   -5.30414401    0.71251118      30
Ni     3.61213275   -0.00003883   -4.66721762      31
Ni     3.52322392   -0.00003399    5.99301413      32
Ni     3.53857469    5.30407396    0.71251728      33
Ni     5.29807108   -1.77047481   -1.05170713      34
Ni     5.30235482    1.78060118    2.48776624      35
Ni     5.29807335    1.77040365   -1.05170427      36
Ni     5.30235141   -1.78066862    2.48776238      37
Ni     1.77308877    3.54448288    4.25745816      38
Ni     1.80477000   -3.56697564   -2.81802445      39
Ni     1.80476681    3.56689493   -2.81801982      40
Ni     1.77308294   -3.54454900    4.25744799      41
Ni     5.27603390   -0.00003379    0.72260629      42
Ni     3.51963218   -3.52529692   -1.05167764      43
Ni     3.56057656   -1.80988527   -2.81787591      44
Ni     3.54112611   -3.54660918    2.49095415      45
Ni     3.56057902    1.80981376   -2.81787317      46
Ni     3.53929346    1.77846368    4.25774668      47
Ni     3.54113380    3.54654274    2.49096253      48
Ni     3.53928910   -1.77853084    4.25774118      49
Ni     3.51963616    3.52522516   -1.05167454      50
Ni    -3.57111865    1.80932716    0.71391058      51
Ni    -3.62298507   -0.00003541    2.56239683      52
Ni    -3.56010131   -0.00003887   -1.05177804      53
Ni    -3.57112062   -1.80940340    0.71390688      54
Ni    -1.81558499    3.56680405    0.71423093      55
Ni    -1.77244725   -0.00003333    4.22125179      56
Ni    -2.04400285   -0.00004056   -2.96778901      57
Ni    -1.81557511   -3.56686767    0.71422264      58
Ni     2.03374730   -0.00003601    0.86407154      59
Ni     0.00000000    0.00000000    0.00000000      60
Ni    -0.00470472    1.76777058    4.22149632      61
Ni    -0.00498381    3.61890674    2.56411357      62
Ni    -0.00470416   -1.76783569    4.22149368      63
Ni    -0.00537898    3.55486303   -1.05181456      64
Ni    -0.00538049   -3.55493588   -1.05181831      65
Ni    -0.00515769   -2.03599846   -2.96641838      66
Ni    -0.00498326   -3.61895824    2.56408614      67
Ni    -0.00515228    2.03589497   -2.96639883      68
Ni    -0.00424609   -0.00002984    2.44260098      69
Ni    -0.00609604    2.03541004    0.86258369      70
Ni    -0.00610149   -2.03543586    0.86255490      71
Ni    -0.00933767   -0.00006012   -2.10589713      72
Ni     3.56220315   -1.81101799    0.71481558      73
Ni     3.54956070   -0.00003491   -1.05169450      74
Ni     3.61509474   -0.00003292    2.56586912      75
Ni     3.56220428    1.81094892    0.71482024      76
Ni     2.02826680   -0.00003213   -2.96508664      77
Ni     1.80467354   -3.56655829    0.71466251      78
Ni     1.80468671    3.56649894    0.71467059      79
Ni     1.76312124   -0.00003220    4.22171433      80
Ni    -1.79933610    1.79411058    2.50312202      81
Ni    -1.79933239   -1.79418044    2.50311998      82
Ni    -1.68099333    1.67565965   -1.05261194      83
Ni    -1.68099257   -1.67573188   -1.05261872      84
Ni    -2.03726887   -0.00004166    0.86112271      85
Ni     1.78938548    1.79455330    2.50318989      86
Ni     1.67063839   -1.67602639   -1.05154548      87
Ni     1.67064120    1.67595930   -1.05153647      88
Ni     1.78937915   -1.79461606    2.50318375      89
          89
Lattice="  21.1372   0.0000   0.0000   0.0000  21.1372   0.0000   0.0000   0.0000  21.1372 " ConfE="      -3844.5965" DelE="          0.1405"
Ni    -5.24016932   -0.00017810    0.72438559       1
Ni    -1.77764783    3.53508696    4.24611625       2
Ni    -1.79033755   -3.54627548   -2.82108549       3
Ni    -1.77763070   -3.53544724    4.24601060       4
Ni    -1.79033541    3.54609512   -2.82066684       5
Ni    -3.54337625    1.80017056    4.26974652       6
Ni    -3.54434915    3.55442797    2.50083453       7
Ni    -3.54332313   -1.80067164    4.26965831       8
Ni    -3.53290708    3.54591963   -1.07765112       9
Ni    -3.53304532   -3.54621198   -1.07804747      10
Ni    -3.54055406   -1.79018797   -2.82815497      11
Ni    -3.54437455   -3.55473351    2.50057496      12
Ni    -3.54045410    1.78998849   -2.82790711      13
Ni     5.27868174    0.00016233   -2.82854767      14
Ni     5.28645260   -3.53519111    0.70775345      15
Ni     5.28629005    3.53506651    0.70824419      16
Ni     5.29274384   -0.00011995    4.24463582      17
Ni     1.77826745    5.31240252    2.49074068      18
Ni     1.76252819    1.76824652    5.99926901      19
Ni     1.78912978    1.79697964   -4.61407489      20
Ni     1.77845042   -5.31253960    2.49044447      21
Ni     1.78917824   -1.79677779   -4.61420906      22
Ni     1.77150200   -5.30827215   -1.06710687      23
Ni     1.77122757    5.30808411   -1.06653765      24
Ni     1.76259622   -1.76860347    5.99924751      25
Ni    -0.00305548   -0.00024794    5.98594429      26
Ni     0.00195376    5.27700338    0.71450458      27
Ni     0.00209158   -5.27706746    0.71406096      28
Ni     0.01152193    0.00005067   -4.52834166      29
Ni     3.55479538   -5.32122441    0.70884172      30
Ni     3.60610179    0.00015435   -4.66252301      31
Ni     3.53177332   -0.00017486    6.00578111      32
Ni     3.55449013    5.32096215    0.70906309      33
Ni     5.28813441   -1.76639587   -1.05629412      34
Ni     5.28611221    1.76814136    2.47455455      35
Ni     5.28803219    1.76648134   -1.05603131      36
Ni     5.28621937   -1.76837694    2.47438975      37
Ni     1.77634344    3.54334714    4.25573925      38
Ni     1.78772795   -3.55486830   -2.83301243      39
Ni     1.78765999    3.55485524   -2.83258267      40
Ni     1.77652361   -3.54370710    4.25565298      41
Ni     5.27247625   -0.00002637    0.70869795      42
Ni     3.53335749   -3.53551780   -1.06652656      43
Ni     3.55682089   -1.80051967   -2.83211030      44
Ni     3.54295249   -3.54353468    2.48878668      45
Ni     3.55675533    1.80065237   -2.83180192      46
Ni     3.53686271    1.77145909    4.24971015      47
Ni     3.54274987    3.54334491    2.48904810      48
Ni     3.53688258   -1.77180052    4.24955687      49
Ni     3.53309697    3.53536006   -1.06603788      50
Ni    -3.64641990    1.92054105    0.70536152      51
Ni    -3.69774398   -0.00027890    2.69197672      52
Ni    -3.60984819   -0.00022542   -1.15162100      53
Ni    -3.64632520   -1.92079231    0.70509098      54
Ni    -1.80072329    3.56689874    0.71068854      55
Ni    -1.78096925   -0.00029378    4.24277684      56
Ni    -1.86411382   -0.00011074   -2.89805200      57
Ni    -1.80087288   -3.56741547    0.71030579      58
Ni     1.87310650    0.00000340    0.74679460      59
Ni    -0.37622236   -0.00090786    0.33534345      60
Ni    -0.00581176    1.78534210    4.24467151      61
Ni    -0.00104051    3.61037387    2.55868306      62
Ni    -0.00574854   -1.78583872    4.24456879      63
Ni    -0.00195595    3.56702752   -1.08869831      64
Ni    -0.00190139   -3.56746542   -1.08933953      65
Ni    -0.00747165   -1.92059338   -2.93472894      66
Ni    -0.00094349   -3.61101247    2.55873511      67
Ni    -0.00746343    1.92067786   -2.93458881      68
Ni     0.03512936   -0.00021384    2.58438970      69
Ni     0.08643033    2.09288668    0.79857911      70
Ni     0.08668573   -2.09437453    0.79840937      71
Ni     0.13557831    0.00007108   -1.73354583      72
Ni     3.53194503   -1.78621408    0.70595500      73
Ni     3.52994872   -0.00011557   -1.07003629      74
Ni     3.54752531   -0.00022758    2.50001930      75
Ni     3.53190417    1.78604337    0.70617795      76
Ni     1.97897182    0.00006438   -2.98641366      77
Ni     1.84657119   -3.61129427    0.71049682      78
Ni     1.84601804    3.61077466    0.71107153      79
Ni     1.78717395   -0.00023098    4.26006306      80
Ni    -1.77696228    1.74861055    2.44277241      81
Ni    -1.77680409   -1.74907550    2.44242927      82
Ni    -1.71804928    1.68961324   -1.00561628      83
Ni    -1.71810910   -1.69016508   -1.00589908      84
Ni    -2.44564247   -0.00001307    0.84831106      85
Ni     1.78638427    1.78664185    2.49864573      86
Ni     1.73002717   -1.74889015   -1.06524404      87
Ni     1.73005914    1.74871848   -1.06505391      88
Ni     1.78637709   -1.78707372    2.49835812      89
          89
Lattice="  21.1372   0.0000   0.0000   0.0000  21.1372   0.0000   0.0000   0.0000  21.1372 " ConfE="      -3844.7368" DelE="          0.0002"
Ni    -5.26021891   -0.00003598    0.70859580       1
Ni    -1.76449872    3.52503329    4.23211185       2
Ni    -1.76368763   -3.52542730   -2.81800436       3
Ni    -1.76449772   -3.52513172    4.23211785       4
Ni    -1.76369244    3.52533947   -2.81799895       5
Ni    -3.53142198    1.81144216    4.27517889       6
Ni    -3.53099007    3.56685109    2.51753082       7
Ni    -3.53141755   -1.81151883    4.27517418       8
Ni    -3.53011921    3.56701930   -1.10326065       9
Ni    -3.53011582   -3.56711154   -1.10326315      10
Ni    -3.52974643   -1.80950183   -2.85834362      11
Ni    -3.53098739   -3.56694219    2.51753431      12
Ni    -3.52974986    1.80943189   -2.85834960      13
Ni     5.28051863   -0.00004584   -2.82213439      14
Ni     5.27991541   -3.52846133    0.70634295      15
Ni     5.27989972    3.52834903    0.70634139      16
Ni     5.27937320   -0.00004804    4.23450980      17
Ni     1.77421327    5.30725130    2.48665699      18
Ni     1.77340662    1.77961565    6.01351654      19
Ni     1.77564303    1.78088499   -4.60123733      20
Ni     1.77421718   -5.30735752    2.48665687      21
Ni     1.77564335   -1.78098460   -4.60123730      22
Ni     1.77489903   -5.30800012   -1.07388436      23
Ni     1.77489477    5.30789708   -1.07388783      24
Ni     1.77341247   -1.77972151    6.01352198      25
Ni     0.00882386   -0.00004619    5.98890037      26
Ni     0.00978874    5.28197590    0.70655470      27
Ni     0.00979514   -5.28207382    0.70655636      28
Ni     0.01060701   -0.00004211   -4.57441776      29
Ni     3.55760211   -5.32474983    0.70635060      30
Ni     3.55929754   -0.00004504   -4.61902138      31
Ni     3.55586810   -0.00004719    6.03005297      32
Ni     3.55760255    5.32464764    0.70634967      33
Ni     5.27758743   -1.76238700   -1.05593186      34
Ni     5.27674220    1.76200403    2.46833716      35
Ni     5.27757637    1.76228479   -1.05592550      36
Ni     5.27674975   -1.76211109    2.46834531      37
Ni     1.77718585    3.54566523    4.25252604      38
Ni     1.77877284   -3.54706768   -2.83998869      39
Ni     1.77877415    3.54695933   -2.83997394      40
Ni     1.77719110   -3.54578438    4.25253909      41
Ni     5.27006186   -0.00005519    0.70606925      42
Ni     3.54511132   -3.54494432   -1.07205699      43
Ni     3.54572123   -1.77887623   -2.83844935      44
Ni     3.54419236   -3.54429225    2.48438003      45
Ni     3.54571579    1.77877365   -2.83844335      46
Ni     3.54366524    1.77757461    4.25052889      47
Ni     3.54417909    3.54417451    2.48437153      48
Ni     3.54366976   -1.77768183    4.25053359      49
Ni     3.54510011    3.54482867   -1.07205036      50
Ni    -3.67876658    2.03669528    0.70651455      51
Ni    -3.68182115   -0.00003265    2.74864188      52
Ni    -3.67600190   -0.00002793   -1.32452491      53
Ni    -3.67876306   -2.03679057    0.70651985      54
Ni    -1.76375824    3.55480661    0.70683694      55
Ni    -1.76432094   -0.00004680    4.26147390      56
Ni    -1.76353845   -0.00004131   -2.84773114      57
Ni    -1.76376067   -3.55491227    0.70683687      58
Ni     1.72998356   -0.00008984    0.70506996      59
Ni    -0.71422826   -0.00006457    0.69830510      60
Ni     0.00115525    1.80872840    4.27189739      61
Ni     0.00162894    3.56663475    2.51672390      62
Ni     0.00115677   -1.80883837    4.27191446      63
Ni     0.00259535    3.56645543   -1.10308318      64
Ni     0.00259097   -3.56655935   -1.10309362      65
Ni     0.00291432   -1.81136354   -2.86095195      66
Ni     0.00162508   -3.56675124    2.51673908      67
Ni     0.00291387    1.81124208   -2.86091955      68
Ni     0.14743924   -0.00007834    2.73608437      69
Ni     0.15047323    2.03460956    0.70762430      70
Ni     0.15047886   -2.03474178    0.70762543      71
Ni     0.15342871   -0.00005862   -1.33341947      72
Ni     3.50891800   -1.76793566    0.70586555      73
Ni     3.50938670   -0.00006181   -1.06204882      74
Ni     3.50856866   -0.00006702    2.47354974      75
Ni     3.50889971    1.76780674    0.70586285      76
Ni     1.85453493   -0.00005173   -2.91461518      77
Ni     1.85156310   -3.61914608    0.70603822      78
Ni     1.85155005    3.61902985    0.70603893      79
Ni     1.84863044   -0.00005658    4.32328330      80
Ni    -1.76560302    1.67593860    2.38272340      81
Ni    -1.76561150   -1.67605013    2.38272591      82
Ni    -1.76369992    1.67595893   -0.96901473      83
Ni    -1.76370916   -1.67606839   -0.96902351      84
Ni    -2.82003707   -0.00005118    0.71494857      85
Ni     1.79070899    1.79397960    2.50045171      86
Ni     1.79143261   -1.79495504   -1.08850108      87
Ni     1.79141948    1.79481467   -1.08849104      88
Ni     1.79071710   -1.79411424    2.50046137      89
