          32
Lattice="   7.1928   0.0000   0.0000   0.0000   7.1928   0.0000   0.0000   0.0000   7.1928 " ConfE="       -142.6394" DelE="          0.0000"
Ni    -3.59638123    1.90940967    0.00000000       1
Ni     3.59638122    1.90940967    2.21274898       2
Ni     3.59638122    1.90940967   -2.21274897       3
Ni    -1.38363225    1.90940967    0.00000000       4
Ni     1.38363225    1.90940967    0.00000000       5
Ni     3.59638122   -0.30333930   -0.00000000       6
Ni     3.59638122   -3.07060379    0.00000000       7
Ni     1.75948349   -1.68697154   -3.59638122       8
Ni    -1.75948349   -1.68697154   -3.59638122       9
Ni     3.59638122   -1.68697154    1.90940969      10
Ni     3.59638122   -1.68697154   -1.90940967      11
Ni    -1.82916154   -3.51613308    1.76721969      12
Ni     1.82916152   -3.51613308    1.76721969      13
Ni    -1.82916154   -3.51613308   -1.76721969      14
Ni     1.82916152   -3.51613308   -1.76721969      15
Ni     1.68697154    1.90940967   -3.59638122      16
Ni    -1.68697154    1.90940967   -3.59638122      17
Ni     0.00000000    0.07251195   -3.59638122      18
Ni    -0.00000000   -1.68697154    1.83689774      19
Ni     0.00000000   -1.68697154   -1.83689772      20
Ni     0.00000000   -3.44645504   -3.59638122      21
Ni     0.00000000    0.00000000    0.00000000      22
Ni     0.00000000    1.90940967    1.90940969      23
Ni     0.00000000    1.90940967   -1.90940967      24
Ni     0.00000000   -3.37394309    0.00000000      25
Ni     1.68697154   -1.68697154    0.00000000      26
Ni    -1.68697154   -1.68697154    0.00000000      27
Ni    -1.82916154    0.14218998    1.76721969      28
Ni     1.82916152    0.14218998    1.76721969      29
Ni    -1.82916154    0.14218998   -1.76721969      30
Ni     1.82916152    0.14218998   -1.76721969      31
Ni     3.59638122    0.00000000   -3.59638122      32
          32
Lattice="   7.1928   0.0000   0.0000   0.0000   7.1928   0.0000   0.0000   0.0000   7.1928 " ConfE="       -140.7633" DelE="          1.8761"
Ni     3.50613375    2.12380025   -0.14905643       1
Ni    -3.27872685    1.80032770    2.13718642       2
Ni    -3.27155937    1.88147927   -2.41510030       3
Ni    -1.41468237    1.61657061    0.02162606       4
Ni     1.23048911    1.65226657   -0.00333854       5
Ni    -3.54334494   -0.21286121    0.39005168       6
Ni     3.56382336   -2.74772740    0.12714262       7
Ni     1.50269233   -1.14550519   -3.23390038       8
Ni    -1.81614039   -1.89262265    3.52340846       9
Ni     2.86581567   -1.76484466    2.07545748      10
Ni     3.49665521   -1.79166860   -1.97687132      11
Ni    -1.91510164   -3.43953390    1.52556231      12
Ni     2.01199807    3.24822894    1.52579415      13
Ni    -2.03492942   -3.56484638   -1.37357122      14
Ni     1.99941254    3.49636100   -1.56724670      15
Ni     1.78769409    1.64855915   -3.50844512      16
Ni    -1.51638019    2.81636125   -3.58735920      17
Ni    -0.40245605    0.29729362   -3.38951692      18
Ni     0.12943885   -1.72201133    1.89976293      19
Ni    -0.15860715   -2.23182178   -1.92450766      20
Ni     0.73968131   -3.40680007    3.44920943      21
Ni     0.06249912   -0.05449506   -1.00914866      22
Ni    -0.07501536    1.96165934    1.98966087      23
Ni    -0.03112891    2.23047862   -1.91935029      24
Ni     0.04008497   -3.49275234    0.13172270      25
Ni     1.56212285   -1.59134341   -0.11915842      26
Ni    -1.50343469   -1.57615918    0.02041452      27
Ni    -1.63331001   -0.00704820    1.82957195      28
Ni     1.63278259    0.22041650    1.79828597      29
Ni    -2.15944470   -0.03152869   -1.70290871      30
Ni     2.38015170    0.31571854   -1.56886501      31
Ni    -3.50787032   -0.09854894    3.46788375      32
          32
Lattice="   7.1928   0.0000   0.0000   0.0000   7.1928   0.0000   0.0000   0.0000   7.1928 " ConfE="       -142.6274" DelE="          0.0120"
Ni    -3.37646207    1.70847580    0.08967144       1
Ni    -2.60557854    1.60578940    2.36930207       2
Ni    -2.78141563    1.61545512   -2.26603183       3
Ni    -1.12186827    2.46256586    0.54682856       4
Ni     0.94997912    1.52933296    0.00570917       5
Ni    -2.91597134   -0.51497546    1.03813919       6
Ni     3.06363512   -2.33659178   -0.07635740       7
Ni     1.03739765   -0.27651339    3.57023599       8
Ni    -1.74095798   -1.71844127    2.92454608       9
Ni     2.30263113   -1.88360104    2.17737203      10
Ni     2.12530786   -1.80216043   -2.14845235      11
Ni    -2.71576126   -3.31288615    1.51513429      12
Ni     2.19982258    3.03053789    1.40698281      13
Ni    -2.23916924   -3.51504109   -1.27155227      14
Ni     2.50729215    2.95411285   -1.46963870      15
Ni     2.42901868    1.83060593    3.56766484      16
Ni    -1.28481328    3.22216529   -3.49709804      17
Ni    -1.20597143    0.35170819   -3.32626735      18
Ni     0.07856520   -2.83843784    1.71447162      19
Ni    -0.41171380   -1.72477937   -2.21245943      20
Ni     1.06982220   -3.37965260   -3.41190695      21
Ni    -1.12752695    0.41312231   -0.79053460      22
Ni     0.27253026    1.91105714    2.44656419      23
Ni     0.32282981    1.82368303   -2.23723922      24
Ni     0.49014926   -3.34910889   -0.69847985      25
Ni     1.00899839   -1.00896531   -0.07340274      26
Ni    -1.30026511   -1.89478126    0.10115457      27
Ni    -0.50432171   -0.09791140    1.54874819      28
Ni     2.21077416    0.47130419    1.58366152      29
Ni    -2.74844018   -1.10606713   -1.69824895      30
Ni     2.42813155    0.43876941   -1.51596822      31
Ni     3.55015835   -0.32516205    3.48530911      32
