          48
Lattice="  31.6876   0.0000   0.0000   0.0000  31.6876   0.0000   0.0000   0.0000  31.6876 " ConfE="     -12976.1286" DelE="          0.0000"
Ni    -1.81056717   -2.81885113   -3.56978260       1
Ni    -3.56541870   -2.81848231   -1.81290072       2
Ni    -3.56580458   -2.81810609    1.80688010       3
Ni     1.81101499   -2.81889103   -3.56975747       4
Ni    -1.80894327   -2.81779117    3.56172146       5
Ni     1.80941844   -2.81782517    3.56170076       6
Ni     3.56604114   -2.81858844   -1.81301777       7
Ni     3.56644645   -2.81822026    1.80701517       8
Ni     0.00031094   -4.54622752   -0.00409016       9
Ni    -3.56558300    0.71400944    1.80703839      10
Ni    -3.56575481    0.71353458   -1.81275982      11
Ni     1.80991296    0.71325982   -3.56812995      12
Ni    -1.80949132    0.71330724   -3.56812798      13
Ni    -1.81009137    0.71410284    3.56330008      14
Ni     3.56612619    0.71346907   -1.81271177      15
Ni     1.81050868    0.71405740    3.56328749      16
Ni     3.56596520    0.71395309    1.80698001      17
Ni     0.00017662    2.56217661   -3.62009319      18
Ni     0.00017827    2.56415157    3.61642817      19
Ni     3.61856733    2.56307444   -0.00246896      20
Ni    -3.61828550    2.56323780   -0.00247223      21
Ni     0.00017155    4.21898253    1.76532175      22
Ni     1.76776706    4.21883363   -0.00228910      23
Ni    -1.76743801    4.21886243   -0.00229531      24
Ni     0.00016840    4.21878187   -1.76975789      25
Ni     0.00020930   -1.05239859   -3.55675092      26
Ni    -3.55361406   -1.05218110   -0.00295717      27
Ni     0.00021043   -1.05219555    3.55054891      28
Ni     3.55409647   -1.05223416   -0.00296011      29
Ni     0.00019104   -2.96797343   -2.04188489      30
Ni    -2.03488441   -2.96622969   -0.00243743      31
Ni     0.00020443   -2.96499050    2.02868311      32
Ni     2.03585143   -2.96649836   -0.00245420      33
Ni     1.79438551    2.50178098   -1.79674692      34
Ni    -1.79401632    2.50180810   -1.79677719      35
Ni     1.79465686    2.50202499    1.79178833      36
Ni    -1.79430896    2.50208301    1.79183248      37
Ni     0.00062874   -2.10509436   -0.00825749      38
Ni     0.00000000    0.00000000    0.00000000      39
Ni    -1.67549798   -1.05262368   -1.67866890      40
Ni    -1.67499530   -1.05172290    1.67202129      41
Ni     1.67600091   -1.05271372   -1.67871019      42
Ni     1.67550785   -1.05179077    1.67206125      43
Ni    -2.03502377    0.86205269   -0.00328074      44
Ni     0.00023565    0.86082903   -2.03618753      45
Ni     0.00021140    0.86303952    2.03399505      46
Ni     2.03520644    0.86184615   -0.00330121      47
Ni     0.00015780    2.44131691   -0.00211129      48
          48
Lattice="  31.6876   0.0000   0.0000   0.0000  31.6876   0.0000   0.0000   0.0000  31.6876 " ConfE="     -12975.9872" DelE="          0.1414"
Ni    -1.80187707   -2.83345594   -3.56646342       1
Ni    -3.55660476   -2.83375334   -1.79702641       2
Ni    -3.54666213   -2.82069001    1.78294255       3
Ni     1.80159581   -2.83164150   -3.56496090       4
Ni    -1.78945836   -2.82738765    3.53113738       5
Ni     1.78996935   -2.82756825    3.53119561       6
Ni     3.55398230   -2.83256587   -1.79549218       7
Ni     3.54607775   -2.82146503    1.78131608       8
Ni    -0.00173395   -4.52676177   -0.02107876       9
Ni    -3.56107089    0.70935274    1.78887650      10
Ni    -3.60080255    0.70996689   -1.84384580      11
Ni     1.78447744    0.70479198   -3.53571141      12
Ni    -1.78416464    0.70499959   -3.53774774      13
Ni    -1.92860267    0.70450691    3.64314606      14
Ni     3.61803881    0.71054524   -1.86212803      15
Ni     1.91591760    0.70442082    3.63301890      16
Ni     3.57075399    0.71036896    1.79564070      17
Ni     0.00059938    2.49560205   -3.55113029      18
Ni     0.00064753    2.69551150    3.69260670      19
Ni     3.61769542    2.56547882   -0.00627327      20
Ni    -3.60030828    2.54734756   -0.00551264      21
Ni     0.00086332    4.23933650    1.77386833      22
Ni     1.78456317    4.23942822   -0.00053844      23
Ni    -1.78397103    4.24149504   -0.00060008      24
Ni     0.00064563    4.25536937   -1.79174227      25
Ni     0.00064450   -1.07021908   -3.53605032      26
Ni    -3.56147922   -1.08542892   -0.00534291      27
Ni     0.00079213   -1.15097143    3.59927770      28
Ni     3.57101514   -1.09241206   -0.00660341      29
Ni     0.00036175   -2.98951282   -1.99187938      30
Ni    -1.92818783   -2.93980125   -0.00084877      31
Ni     0.00068223   -2.89608022    1.85318108      32
Ni     1.91511857   -2.92970486   -0.00091138      33
Ni     1.78705765    2.49652940   -1.79268896      34
Ni    -1.78458912    2.49623455   -1.79225674      35
Ni     1.74765192    2.43680201    1.76779234      36
Ni    -1.75182199    2.44666322    1.77365228      37
Ni    -0.01503866   -1.73786692   -0.15078081      38
Ni     0.03796246    0.32536121    0.37847514      39
Ni    -1.75290263   -1.07053698   -1.74390942      40
Ni    -1.68663366   -1.00720864    1.71038917      41
Ni     1.74834680   -1.06476917   -1.73401183      42
Ni     1.69645847   -1.00894851    1.71189501      43
Ni    -2.06243759    0.79169106   -0.08879136      44
Ni    -0.00264445    0.74201131   -1.87280848      45
Ni    -0.01484098    0.85338566    2.44218452      46
Ni     2.11760489    0.80257249   -0.09974319      47
Ni    -0.00250820    2.57609870   -0.03911043      48
          48
Lattice="  31.6876   0.0000   0.0000   0.0000  31.6876   0.0000   0.0000   0.0000  31.6876 " ConfE="     -12976.1286" DelE="          0.0000"
Ni    -1.77819205   -2.83687379   -3.55129855       1
Ni    -3.54579404   -2.83849368   -1.78561727       2
Ni    -3.52429138   -2.81682450    1.75637228       3
Ni     1.77870399   -2.83689375   -3.55133243       4
Ni    -1.80953174   -2.85769424    3.52226912       5
Ni     1.80997247   -2.85769760    3.52223011       6
Ni     3.54631737   -2.83853600   -1.78569008       7
Ni     3.52476422   -2.81683804    1.75633224       8
Ni     0.00023818   -4.57196807   -0.01780589       9
Ni    -3.55359260    0.70754463    1.75680036      10
Ni    -3.61809236    0.70703414   -1.85855902      11
Ni     1.76797686    0.70671074   -3.51447162      12
Ni    -1.76741043    0.70670736   -3.51444488      13
Ni    -2.03491630    0.70725393    3.67097883      14
Ni     3.61877139    0.70704481   -1.85879595      15
Ni     2.03519574    0.70723283    3.67082372      16
Ni     3.55408046    0.70754125    1.75675227      17
Ni     0.00027984    2.47433741   -3.51418355      18
Ni     0.00021001    2.74419290    3.67189149      19
Ni     3.56639045    2.51751908   -0.00919166      20
Ni    -3.56578087    2.51741079   -0.00909144      21
Ni     0.00021539    4.26107023    1.75682302      22
Ni     1.80943627    4.27230619   -0.00881347      23
Ni    -1.80895941    4.27232202   -0.00878201      24
Ni     0.00026324    4.32436088   -1.85696019      25
Ni     0.00027343   -1.06096670   -3.51466224      26
Ni    -3.56546176   -1.10241871   -0.00952563      27
Ni     0.00023947   -1.32591796    3.66985907      28
Ni     3.56606265   -1.10251802   -0.00961641      29
Ni     0.00025033   -2.91236846   -1.86039980      30
Ni    -1.81054684   -2.85926676   -0.00990724      31
Ni     0.00022050   -2.84627806    1.75656630      32
Ni     1.81101086   -2.85925012   -0.00994471      33
Ni     1.79431261    2.50116951   -1.79726720      34
Ni    -1.79377516    2.50114151   -1.79724088      35
Ni     1.67552359    2.38258545    1.75715523      36
Ni    -1.67500844    2.38255073    1.75720931      37
Ni     0.00020923   -1.33120309   -0.15895263      38
Ni     0.00055013    0.70260199    0.70381042      39
Ni    -1.79412350   -1.08707335   -1.79735329      40
Ni    -1.67550259   -0.96820813    1.75635271      41
Ni     1.79466777   -1.08711314   -1.79738920      42
Ni     1.67601887   -0.96824759    1.75628466      43
Ni    -2.03495764    0.70797880   -0.15729733      44
Ni     0.00029864    0.70646591   -1.73723787      45
Ni     0.00007348    0.71011091    2.80895303      46
Ni     2.03583762    0.70795673   -0.15751957      47
Ni     0.00021256    2.73944022   -0.15610143      48
