          89
Lattice="  21.1372   0.0000   0.0000   0.0000  21.1372   0.0000   0.0000   0.0000  21.1372 " ConfE="      -3844.7371" DelE="          0.0000"
Ni    -5.98232416    0.00000002    0.00000000       1
Ni    -2.48971799    3.54612022    3.54612020       2
Ni    -2.48971800   -3.54612014   -3.54612016       3
Ni    -2.48971799   -3.54612013    3.54612021       4
Ni    -2.48971799    3.54612022   -3.54612016       5
Ni    -4.25667910    1.77807501    3.54419362       6
Ni    -4.25667910    3.54419364    1.77807499       7
Ni    -4.25667910   -1.77807491    3.54419362       8
Ni    -4.25667909    3.54419364   -1.77807494       9
Ni    -4.25667910   -3.54419355   -1.77807494      10
Ni    -4.25667910   -1.77807491   -3.54419358      11
Ni    -4.25667909   -3.54419355    1.77807499      12
Ni    -4.25667909    1.77807501   -3.54419358      13
Ni     4.66932724    0.00000002   -3.61898564      14
Ni     4.66932722   -3.61898562    0.00000000      15
Ni     4.66932725    3.61898571    0.00000000      16
Ni     4.66932724    0.00000002    3.61898569      17
Ni     1.05293678    5.30353905    1.77018717      18
Ni     1.05293677    1.77018719    5.30353903      19
Ni     1.05293677    1.77018719   -5.30353899      20
Ni     1.05293677   -5.30353897    1.77018717      21
Ni     1.05293676   -1.77018710   -5.30353899      22
Ni     1.05293677   -5.30353897   -1.77018713      23
Ni     1.05293678    5.30353905   -1.77018712      24
Ni     1.05293677   -1.77018710    5.30353903      25
Ni    -0.72113880    0.00000003    5.28138864      26
Ni    -0.72113880    5.28138865    0.00000000      27
Ni    -0.72113880   -5.28138858    0.00000000      28
Ni    -0.72113881    0.00000003   -5.28138859      29
Ni     2.82701238   -5.28138859    0.00000001      30
Ni     2.82701238    0.00000002   -5.28138861      31
Ni     2.82701239    0.00000002    5.28138866      32
Ni     2.82701239    5.28138867    0.00000000      33
Ni     4.60836758   -1.79438722   -1.79438724      34
Ni     4.60836758    1.79438730    1.79438729      35
Ni     4.60836759    1.79438731   -1.79438724      36
Ni     4.60836758   -1.79438722    1.79438729      37
Ni     1.05293678    3.52500009    3.52500007      38
Ni     1.05293677   -3.52500000   -3.52500003      39
Ni     1.05293678    3.52500009   -3.52500003      40
Ni     1.05293677   -3.52500000    3.52500008      41
Ni     4.54807715    0.00000002    0.00000000      42
Ni     2.81926455   -3.56658671   -1.81013599      43
Ni     2.81926455   -1.81013597   -3.56658673      44
Ni     2.81926455   -3.56658671    1.81013604      45
Ni     2.81926456    1.81013605   -3.56658673      46
Ni     2.81926455    1.81013606    3.56658678      47
Ni     2.81926455    3.56658679    1.81013604      48
Ni     2.81926455   -1.81013597    3.56658678      49
Ni     2.81926456    3.56658679   -1.81013599      50
Ni    -4.22086643    1.76776073    0.00000000      51
Ni    -4.22086643    0.00000003    1.76776071      52
Ni    -4.22086643    0.00000003   -1.76776066      53
Ni    -4.22086642   -1.76776064    0.00000000      54
Ni    -2.56345364    3.61898567    0.00000001      55
Ni    -2.56345365    0.00000003    3.61898566      56
Ni    -2.56345365    0.00000003   -3.61898562      57
Ni    -2.56345366   -3.61898560    0.00000000      58
Ni     2.10587364    0.00000003    0.00000000      59
Ni     0.00000000    0.00000000    0.00000000      60
Ni    -0.71339095    1.81013605    3.56658676      61
Ni    -0.71339095    3.56658678    1.81013603      62
Ni    -0.71339096   -1.81013596    3.56658677      63
Ni    -0.71339095    3.56658678   -1.81013598      64
Ni    -0.71339096   -3.56658671   -1.81013599      65
Ni    -0.71339096   -1.81013597   -3.56658672      66
Ni    -0.71339096   -3.56658671    1.81013604      67
Ni    -0.71339095    1.81013606   -3.56658672      68
Ni    -0.86187790    0.00000002    2.03559165      69
Ni    -0.86187789    2.03559165    0.00000001      70
Ni    -0.86187792   -2.03559162    0.00000000      71
Ni    -0.86187791    0.00000003   -2.03559161      72
Ni     2.96775151   -2.03559160    0.00000000      73
Ni     2.96775152    0.00000002   -2.03559163      74
Ni     2.96775152    0.00000001    2.03559168      75
Ni     2.96775153    2.03559170   -0.00000000      76
Ni     1.05293678    0.00000002   -3.55458416      77
Ni     1.05293678   -3.55458414    0.00000000      78
Ni     1.05293678    3.55458421    0.00000000      79
Ni     1.05293678    0.00000002    3.55458420      80
Ni    -2.50249400    1.79438730    1.79438728      81
Ni    -2.50249400   -1.79438721    1.79438728      82
Ni    -2.50249399    1.79438729   -1.79438723      83
Ni    -2.50249400   -1.79438721   -1.79438723      84
Ni    -2.44220354    0.00000002    0.00000000      85
Ni     1.05293680    1.67574085    1.67574085      86
Ni     1.05293678   -1.67574083   -1.67574084      87
Ni     1.05293679    1.67574086   -1.67574084      88
Ni     1.05293679   -1.67574082    1.67574085      89
          89
Lattice="  21.1372   0.0000   0.0000   0.0000  21.1372   0.0000   0.0000   0.0000  21.1372 " ConfE="      -3844.3794" DelE="          0.3577"
Ni    -5.97952443    0.00004468   -0.01398839       1
Ni    -2.47147216    3.52656881    3.52404752       2
Ni    -2.50793246   -3.57485223   -3.56042584       3
Ni    -2.47154977   -3.52653724    3.52400723       4
Ni    -2.50780068    3.57486994   -3.56033819       5
Ni    -4.21995289    1.75501285    3.51160278       6
Ni    -4.23255164    3.52658957    1.76338162       7
Ni    -4.21998503   -1.75495219    3.51159165       8
Ni    -4.26848621    3.56575518   -1.77143501       9
Ni    -4.26856438   -3.56571961   -1.77151863      10
Ni    -4.28345520   -1.81219858   -3.56145857      11
Ni    -4.23261553   -3.52655569    1.76334567      12
Ni    -4.28338861    1.81227874   -3.56140338      13
Ni     4.54680706   -0.00002771   -3.49393426      14
Ni     4.61460257   -3.58266187   -0.00318713      15
Ni     4.61477361    3.58269501   -0.00309985      16
Ni     4.85727567   -0.00000765    3.80167037      17
Ni     1.05280657    5.31098728    1.77367013      18
Ni     1.06109258    1.76254800    5.27102230      19
Ni     1.04392366    1.76230122   -5.26999400      20
Ni     1.05264087   -5.31098447    1.77356484      21
Ni     1.04385737   -1.76230363   -5.27000719      22
Ni     1.05086735   -5.31182848   -1.77710088      23
Ni     1.05103015    5.31182167   -1.77700207      24
Ni     1.06102483   -1.76256480    5.27100447      25
Ni    -0.68332343    0.00000499    5.25895260      26
Ni    -0.72343838    5.31174496   -0.00244904      27
Ni    -0.72360537   -5.31174512   -0.00254701      28
Ni    -0.73726205    0.00002600   -5.24844179      29
Ni     2.82742909   -5.31107652   -0.00062886      30
Ni     2.78951156   -0.00001429   -5.25945307      31
Ni     2.84597106   -0.00003496    5.24232195      32
Ni     2.82758897    5.31107421   -0.00053370      33
Ni     4.56173635   -1.76249667   -1.74973278      34
Ni     4.63717695    1.86552548    1.79420341      35
Ni     4.56180710    1.76245908   -1.74972289      36
Ni     4.63709470   -1.86559538    1.79410741      37
Ni     1.04933153    3.58117895    3.55937131      38
Ni     1.05319543   -3.58171303   -3.56311384      39
Ni     1.05333371    3.58163796   -3.56297683      40
Ni     1.04918820   -3.58111942    3.55922842      41
Ni     4.49637482   -0.00001861    0.06438384      42
Ni     2.83679279   -3.58824846   -1.78742355      43
Ni     2.80302355   -1.76265581   -3.50879364      44
Ni     2.84143196   -3.59138480    1.78789949      45
Ni     2.80306207    1.76261075   -3.50874212      46
Ni     2.84570751    1.86989382    3.58815136      47
Ni     2.84161543    3.59142120    1.78803420      48
Ni     2.84558220   -1.86994778    3.58808491      49
Ni     2.83690728    3.58822468   -1.78735801      50
Ni    -4.21958909    1.76301563   -0.00834388      51
Ni    -4.20830236    0.00004043    1.73700740      52
Ni    -4.19565098    0.00005307   -1.79062936      53
Ni    -4.21961484   -1.76293954   -0.00838182      54
Ni    -2.50813492    3.57990893    0.00037888      55
Ni    -2.43841229    0.00002571    3.49052593      56
Ni    -2.72572005    0.00001517   -3.77975366      57
Ni    -2.50831840   -3.57994099    0.00028956      58
Ni     1.82104378    0.00018782    0.75288898      59
Ni     0.33831070   -0.00020096   -0.73138407      60
Ni    -0.69487617    1.76134689    3.50606386      61
Ni    -0.73126605    3.58376683    1.78016999      62
Ni    -0.69491988   -1.76131483    3.50600738      63
Ni    -0.73875857    3.59035848   -1.79196420      64
Ni    -0.73894698   -3.59040310   -1.79209496      65
Ni    -0.74467710   -1.85838009   -3.58453084      66
Ni    -0.73138966   -3.58374945    1.78009815      67
Ni    -0.74455516    1.85841801   -3.58446989      68
Ni    -0.61704380    0.00001413    1.67010427      69
Ni    -0.75591645    1.90460188   -0.00681429      70
Ni    -0.75616381   -1.90473956   -0.00689190      71
Ni    -1.17870115    0.00003824   -2.21879120      72
Ni     2.85877976   -1.91555711   -0.00686192      73
Ni     2.73094284   -0.00001543   -1.67674713      74
Ni     3.30450417   -0.00004623    2.26470298      75
Ni     2.85902085    1.91568857   -0.00678167      76
Ni     0.99316541   -0.00001176   -3.44803613      77
Ni     1.05001487   -3.59489505   -0.00338802      78
Ni     1.05018020    3.59489434   -0.00328074      79
Ni     1.11321732    0.00000402    3.44741515      80
Ni    -2.45394287    1.76153884    1.74746535      81
Ni    -2.45402165   -1.76150011    1.74745162      82
Ni    -2.53630388    1.86216943   -1.79625802      83
Ni    -2.53639217   -1.86210081   -1.79635026      84
Ni    -2.40091925    0.00002068   -0.05614133      85
Ni     1.05215414    1.90933894    1.80286998      86
Ni     1.05242514   -1.91190901   -1.81211658      87
Ni     1.05253749    1.91173796   -1.81190320      88
Ni     1.05204143   -1.90918139    1.80265832      89
          89
Lattice="  21.1372   0.0000   0.0000   0.0000  21.1372   0.0000   0.0000   0.0000  21.1372 " ConfE="      -3844.7370" DelE="          0.0001"
Ni    -5.99055196   -0.00000028   -0.00004481       1
Ni    -2.49296752    3.54646750    3.54255020       2
Ni    -2.49333159   -3.54614613   -3.54264238       3
Ni    -2.49296671   -3.54646756    3.54255033       4
Ni    -2.49333280    3.54614574   -3.54264296       5
Ni    -4.25414794    1.78044124    3.53926285       6
Ni    -4.25096158    3.54438945    1.76409551       7
Ni    -4.25414738   -1.78044157    3.53926267       8
Ni    -4.25095009    3.54404393   -1.76447224       9
Ni    -4.25094979   -3.54404451   -1.76447199      10
Ni    -4.25407620   -1.78013196   -3.53916732      11
Ni    -4.25096080   -3.54438947    1.76409590      12
Ni    -4.25407649    1.78013119   -3.53916725      13
Ni     4.67213158    0.00000030   -3.61653878      14
Ni     4.57823972   -3.52561075    0.00010229      15
Ni     4.57823888    3.52561092    0.00010213      16
Ni     4.67134767    0.00000033    3.61554335      17
Ni     1.05320696    5.28189066    1.77414208      18
Ni     1.05313554    1.76774616    5.27342310      19
Ni     1.05278934    1.76773972   -5.27339646      20
Ni     1.05320826   -5.28189024    1.77414264      21
Ni     1.05279008   -1.76773931   -5.27339614      22
Ni     1.05269958   -5.28187121   -1.77408028      23
Ni     1.05269808    5.28187076   -1.77408137      24
Ni     1.05313621   -1.76774624    5.27342286      25
Ni    -0.71444025   -0.00000025    5.27326680      26
Ni    -0.71732158    5.30397551   -0.00004718      27
Ni    -0.71732016   -5.30397585   -0.00004689      28
Ni    -0.71476774    0.00000005   -5.27350921      29
Ni     2.82323451   -5.30399516    0.00011895      30
Ni     2.82035349    0.00000048   -5.27326078      31
Ni     2.82068327    0.00000014    5.27358809      32
Ni     2.82323352    5.30399489    0.00011854      33
Ni     4.62004498   -1.81077312   -1.76631996      34
Ni     4.61943618    1.81011834    1.76614503      35
Ni     4.62004437    1.81077349   -1.76632039      36
Ni     4.61943626   -1.81011745    1.76614519      37
Ni     1.05328451    3.61896018    3.61599831      38
Ni     1.05263058   -3.61895018   -3.61595479      39
Ni     1.05262926    3.61895201   -3.61595773      40
Ni     1.05328577   -3.61896118    3.61599975      41
Ni     4.60804228    0.00000036    0.00004868      42
Ni     2.86299932   -3.56691585   -1.76609462      43
Ni     2.84700072   -1.79441666   -3.55459424      44
Ni     2.86352873   -3.56712280    1.76626909      45
Ni     2.84700022    1.79441716   -3.55459444      46
Ni     2.84736491    1.79417144    3.55491712      47
Ni     2.86352735    3.56712205    1.76626845      48
Ni     2.84736572   -1.79417129    3.55491728      49
Ni     2.86299992    3.56691757   -1.76609526      50
Ni    -4.25059972    1.77045994   -0.00009422      51
Ni    -4.22828151   -0.00000028    1.77403518      52
Ni    -4.22867085   -0.00000045   -1.77405630      53
Ni    -4.25059931   -1.77046040   -0.00009396      54
Ni    -2.47233858    3.52558206   -0.00005656      55
Ni    -2.56625405   -0.00000007    3.61658320      56
Ni    -2.56548026   -0.00000017   -3.61555256      57
Ni    -2.47233820   -3.52558236   -0.00005656      58
Ni     1.05126099   -0.00000231    1.05302030      59
Ni     1.05464461    0.00000400   -1.05294019      60
Ni    -0.74113452    1.79441984    3.55465376      61
Ni    -0.75711853    3.56692971    1.76615247      62
Ni    -0.74113406   -1.79441991    3.55465361      63
Ni    -0.75763574    3.56712808   -1.76621408      64
Ni    -0.75763322   -3.56712655   -1.76621347      65
Ni    -0.74147824   -1.79421166   -3.55492648      66
Ni    -0.75711794   -3.56693062    1.76615304      67
Ni    -0.74147923    1.79421126   -3.55492669      68
Ni    -0.98411568    0.00000079    1.91468003      69
Ni    -0.62327205    1.67625761    0.00038496      70
Ni    -0.62327141   -1.67625754    0.00038613      71
Ni    -0.98188907   -0.00000102   -1.91372099      72
Ni     2.72920364   -1.67629219   -0.00034196      73
Ni     3.08999670   -0.00000034   -1.91458523      74
Ni     3.08783975    0.00000074    1.91360710      75
Ni     2.72920299    1.67629249   -0.00034288      76
Ni     1.05301422    0.00000064   -3.49455991      77
Ni     1.05294938   -3.55543352    0.00002952      78
Ni     1.05294809    3.55543408    0.00002992      79
Ni     1.05289949   -0.00000025    3.49459449      80
Ni    -2.51413015    1.81075284    1.76635357      81
Ni    -2.51412949   -1.81075241    1.76635380      82
Ni    -2.51349452    1.81009687   -1.76612253      83
Ni    -2.51349474   -1.81009777   -1.76612248      84
Ni    -2.50201713   -0.00000022   -0.00006446      85
Ni     1.05353397    2.03604614    1.91400090      86
Ni     1.05231356   -2.03603787   -1.91395542      87
Ni     1.05231259    2.03604108   -1.91395618      88
Ni     1.05353507   -2.03604878    1.91400291      89
