          89
Lattice="  21.1372   0.0000   0.0000   0.0000  21.1372   0.0000   0.0000   0.0000  21.1372 " ConfE="      -3844.7370" DelE="          0.0000"
Ni     0.00349563    0.00002024   -5.98169857       1
Ni    -3.54257662    3.54621385   -2.48917475       2
Ni     3.54944745   -3.54590132   -2.48860793       3
Ni    -3.54257947   -3.54617679   -2.48918002       4
Ni     3.54944801    3.54594313   -2.48860621       5
Ni    -3.54062300    1.77818332   -4.25625343       6
Ni    -1.77445817    3.54415701   -4.25607109       7
Ni    -3.54062478   -1.77814456   -4.25625670       8
Ni     1.78143108    3.54398914   -4.25575891       9
Ni     1.78143226   -3.54394887   -4.25576073      10
Ni     3.54729908   -1.77775902   -4.25554057      11
Ni    -1.77445989   -3.54412024   -4.25607613      12
Ni     3.54729989    1.77780074   -4.25554064      13
Ni     3.62443240    0.00002720    4.67176625      14
Ni     0.00435440   -3.61889812    4.66998328      15
Ni     0.00435385    3.61896686    4.67001070      16
Ni    -3.61364741    0.00002471    4.66829396      17
Ni    -1.76636722    5.30363778    1.05381391      18
Ni    -5.29974169    1.77015380    1.05376816      19
Ni     5.30741101    1.77046376    1.05419286      20
Ni    -1.76636591   -5.30359517    1.05380961      21
Ni     5.30740875   -1.77041469    1.05419001      22
Ni     1.77421793   -5.30372569    1.05427402      23
Ni     1.77422136    5.30377066    1.05427744      24
Ni    -5.29974176   -1.77010969    1.05376481      25
Ni    -5.27741800    0.00002110   -0.72045813      26
Ni     0.00379468    5.28134539   -0.72019635      27
Ni     0.00379407   -5.28130234   -0.72020031      28
Ni     5.28508484    0.00002367   -0.71985969      29
Ni     0.00412856   -5.28163313    2.82811940      30
Ni     5.28537157    0.00002633    2.82850342      31
Ni    -5.27786417    0.00002381    2.82750972      32
Ni     0.00412908    5.28167591    2.82812753      33
Ni     1.79871682   -1.79455594    4.60908089      34
Ni    -1.78999843    1.79417070    4.60901915      35
Ni     1.79872315    1.79461341    4.60908703      36
Ni    -1.78999472   -1.79412032    4.60901712      37
Ni    -3.52115016    3.52494044    1.05384546      38
Ni     3.52896985   -3.52523680    1.05421949      39
Ni     3.52897383    3.52528528    1.05422259      40
Ni    -3.52114981   -3.52489663    1.05384163      41
Ni     0.00509158    0.00003028    4.54849812      42
Ni     1.81401121   -3.56649817    2.82055964      43
Ni     3.57154081   -1.81095787    2.82071272      44
Ni    -1.80623744   -3.56680756    2.82011977      45
Ni     3.57154195    1.81100904    2.82071738      46
Ni    -3.56178099    1.80938728    2.81980771      47
Ni    -1.80624732    3.56686417    2.82012806      48
Ni    -3.56178295   -1.80934328    2.81980402      49
Ni     1.81402437    3.56655906    2.82056773      50
Ni     0.00341487    1.76771888   -4.22001824      51
Ni    -1.76432019    0.00001993   -4.22011686      52
Ni     1.77095447    0.00002057   -4.21997380      53
Ni     0.00341514   -1.76767950   -4.22001879      54
Ni     0.00348170    3.61899764   -2.56257299      55
Ni    -3.61615371    0.00001914   -2.56366170      56
Ni     3.62147042    0.00002129   -2.56132049      57
Ni     0.00348101   -3.61896841   -2.56258780      58
Ni     0.00933767    0.00006012    2.10589713      59
Ni     0.00000000    0.00000000    0.00000000      60
Ni    -3.56350548    1.81084672   -0.71274490      61
Ni    -1.80651434    3.56676982   -0.71250866      62
Ni    -3.56350729   -1.81080652   -0.71274875      63
Ni     1.81410448    3.56695505   -0.71212268      64
Ni     1.81410767   -3.56691552   -0.71212732      65
Ni     3.56991423   -1.80982516   -0.71197877      66
Ni    -1.80652190   -3.56673393   -0.71251383      67
Ni     3.56991669    1.80987388   -0.71197604      68
Ni    -2.03466518    0.00001956   -0.86189188      69
Ni     0.00418538    2.03595509   -0.86050169      70
Ni     0.00417998   -2.03593834   -0.86052124      71
Ni     2.03760446    0.00002799   -0.85918951      72
Ni     0.00323617   -2.03537575    2.96845203      73
Ni     2.04308496    0.00002411    2.96996867      74
Ni    -2.02793120    0.00001846    2.96701985      75
Ni     0.00324163    2.03547016    2.96848083      76
Ni     3.55889837    0.00002521    1.05420263      77
Ni     0.00395717   -3.55487576    1.05407882      78
Ni     0.00395869    3.55492315    1.05408258      79
Ni    -3.55076365    0.00002125    1.05411909      80
Ni    -1.79092012    1.79457004   -2.50148080      81
Ni    -1.79092484   -1.79453338   -2.50148714      82
Ni     1.79776011    1.79416793   -2.50120039      83
Ni     1.79776087   -1.79412488   -2.50119974      84
Ni     0.00305109    0.00001790   -2.44134548      85
Ni    -1.67165567    1.67571976    1.05328519      86
Ni     1.67997605   -1.67596627    1.05435165      87
Ni     1.67997887    1.67601941    1.05436067      88
Ni    -1.67165490   -1.67567176    1.05327841      89
          89
Lattice="  21.1372   0.0000   0.0000   0.0000  21.1372   0.0000   0.0000   0.0000  21.1372 " ConfE="      -3844.3796" DelE="          0.3574"
Ni     0.00359181    0.01491995   -5.97742844       1
Ni    -3.57307737    3.56008264   -2.50682531       2
Ni     3.53085832   -3.52492224   -2.47151774       3
Ni    -3.52331788   -3.52508162   -2.47142509       4
Ni     3.58071175    3.56008233   -2.50675197       5
Ni    -3.56302970    1.77085342   -4.26747250       6
Ni    -1.81316721    3.56149283   -4.28442308       7
Ni    -3.52336175   -1.76398634   -4.23250208       8
Ni     1.82041644    3.56159835   -4.28427512       9
Ni     1.75862443   -3.51173727   -4.21923307      10
Ni     3.53034886   -1.76355854   -4.23172288      11
Ni    -1.75126674   -3.51213730   -4.21970103      12
Ni     3.57093110    1.77041790   -4.26796396      13
Ni     3.58625624    0.00124274    4.61708560      14
Ni     0.00448125   -3.78308548    4.83693391      15
Ni     0.00393641    3.49252504    4.54651999      16
Ni    -3.57603854    0.00127158    4.61451595      17
Ni    -1.75884907    5.27011527    1.04469471      18
Ni    -5.30728810    1.77471976    1.05368170      19
Ni     5.31529032    1.77465087    1.05345865      20
Ni    -1.75811879   -5.27072809    1.06222143      21
Ni     5.31498539   -1.77596258    1.05532507      22
Ni     1.76647050   -5.27060201    1.06253147      23
Ni     1.76610311    5.27046417    1.04513716      24
Ni    -5.30791688   -1.77597545    1.05557328      25
Ni    -5.30715236    0.00013033   -0.72105394      26
Ni     0.00382665    5.24384084   -0.73891489      27
Ni     0.00401454   -5.25948388   -0.68273581      28
Ni     5.31509393    0.00043840   -0.72089476      29
Ni     0.00404060   -5.24738564    2.84434588      30
Ni     5.31515894   -0.00138203    2.83006965      31
Ni    -5.30803286   -0.00171936    2.82999654      32
Ni     0.00372384    5.25877472    2.78970613      33
Ni     1.86519625   -1.79616143    4.64017674      34
Ni    -1.75770239    1.74863318    4.56121597      35
Ni     1.76643906    1.74968129    4.56240529      36
Ni    -1.85826509   -1.79549817    4.64121780      37
Ni    -3.57926041    3.56210620    1.05631542      38
Ni     3.58565055   -3.56256862    1.05284182      39
Ni     3.58462185    3.55971168    1.05658258      40
Ni    -3.57556403   -3.56008924    1.05273293      41
Ni     0.00481751   -0.05850570    4.50347924      42
Ni     1.86485278   -3.58574627    2.85047877      43
Ni     3.59537330   -1.79140241    2.84561516      44
Ni    -1.85797068   -3.58680686    2.84975095      45
Ni     3.58994846    1.78370784    2.83835358      46
Ni    -3.58240652    1.78243050    2.83966253      47
Ni    -1.75862322    3.50817291    2.80313715      48
Ni    -3.58550622   -1.79029618    2.84443731      49
Ni     1.76552220    3.50707822    2.80214060      50
Ni     0.00377376    1.79246009   -4.19097603      51
Ni    -1.75898098    0.00913687   -4.21703901      52
Ni     1.76604520    0.00873507   -4.21732720      53
Ni     0.00358404   -1.73560478   -4.20550970      54
Ni     0.00320165    3.79853138   -2.74544567      55
Ni    -3.57916466   -0.00239003   -2.50861476      56
Ni     3.58440441   -0.00257730   -2.50613822      57
Ni     0.00378294   -3.49200651   -2.43855599      58
Ni     0.01229513   -0.72887244    1.78383509      59
Ni    -0.00499161    0.75425609    0.30019403      60
Ni    -3.58861748    1.78970334   -0.73603366      61
Ni    -1.86172749    3.58532247   -0.74101194      62
Ni    -3.58212079   -1.78534342   -0.72846824      63
Ni     1.87129813    3.58719474   -0.74031530      64
Ni     1.76599881   -3.50771717   -0.69545100      65
Ni     3.58949788   -1.78394846   -0.72964697      66
Ni    -1.75749629   -3.50658341   -0.69446284      67
Ni     3.59408013    1.78866182   -0.73491165      68
Ni    -1.91167457   -0.00271798   -0.75426294      69
Ni     0.00757770    2.25221057   -1.19880921      70
Ni     0.00378485   -1.67268284   -0.62010347      71
Ni     1.91160166   -0.00089713   -0.74986421      72
Ni     0.00135607   -2.23027824    3.28516100      73
Ni     1.91675587   -0.00099479    2.86567068      74
Ni    -1.90176629   -0.00240255    2.86109518      75
Ni     0.00385251    1.67431349    2.72735441      76
Ni     3.59849412   -0.00119761    1.05535763      77
Ni     0.00474171   -3.44867962    1.11305085      78
Ni     0.00303360    3.44631982    0.99198215      79
Ni    -3.59116610   -0.00189358    1.05597925      80
Ni    -1.86166470    1.79473691   -2.53215928      81
Ni    -1.75856250   -1.74876882   -2.45448147      82
Ni     1.87118681    1.79410729   -2.53400766      83
Ni     1.76522243   -1.74772665   -2.45332761      84
Ni     0.00296691    0.06196658   -2.39307601      85
Ni    -1.91189511    1.80803863    1.05710184      86
Ni     1.91641806   -1.81086592    1.05536991      87
Ni     1.91188051    1.80367871    1.05535565      88
Ni    -1.90149984   -1.80633294    1.05670523      89
          89
Lattice="  21.1372   0.0000   0.0000   0.0000  21.1372   0.0000   0.0000   0.0000  21.1372 " ConfE="      -3844.7370" DelE="         -0.0000"
Ni     0.00386269    0.00006266   -5.98987264       1
Ni    -3.54223825    3.54268148   -2.49263272       2
Ni     3.55037552   -3.54255851   -2.49234942       3
Ni    -3.54265518   -3.54255982   -2.49234707       4
Ni     3.54995197    3.54267637   -2.49264399       5
Ni    -3.54016602    1.76451437   -4.25022639       6
Ni    -1.77619872    3.53914857   -4.25333625       7
Ni    -3.54059671   -1.76407640   -4.25035758       8
Ni     1.78391110    3.53914109   -4.25333775       9
Ni     1.78438225   -3.53933144   -4.25355272      10
Ni     3.54832415   -1.76408262   -4.25036869      11
Ni    -1.77664596   -3.53932259   -4.25354839      12
Ni     3.54787887    1.76450819   -4.25022685      13
Ni     3.52936907   -0.00002639    4.57888541      14
Ni     0.00384737   -3.61529860    4.67188456      15
Ni     0.00383501    3.61686151    4.67308269      16
Ni    -3.52167245   -0.00001789    4.57889296      17
Ni    -1.76389686    5.27346899    1.05348529      18
Ni    -5.27797486    1.77415343    1.05333518      19
Ni     5.28566318    1.77415116    1.05331848      20
Ni    -1.76390350   -5.27340513    1.05374245      21
Ni     5.28567532   -1.77406769    1.05384885      22
Ni     1.77159981   -5.27340733    1.05373676      23
Ni     1.77160633    5.27346480    1.05348086      24
Ni    -5.27795077   -1.77406731    1.05386598      25
Ni    -5.30009902    0.00012286   -0.71666122      26
Ni     0.00386059    5.27360359   -0.71409259      27
Ni     0.00385386   -5.27327196   -0.71387834      28
Ni     5.30781960    0.00011177   -0.71667545      29
Ni     0.00384225   -5.27353643    2.82132068      30
Ni     5.30781040   -0.00002815    2.82385918      31
Ni    -5.30012027   -0.00001667    2.82387734      32
Ni     0.00384966    5.27333789    2.82110868      33
Ni     1.81378018   -1.76606095    4.61989353      34
Ni    -1.80701931    1.76643965    4.62083489      35
Ni     1.81470093    1.76643692    4.62081585      36
Ni    -1.80607411   -1.76605642    4.61989095      37
Ni    -3.61506535    3.61599233    1.05327208      38
Ni     3.62277357   -3.61591904    1.05393476      39
Ni     3.62280306    3.61602928    1.05325938      40
Ni    -3.61510751   -3.61596377    1.05394910      41
Ni     0.00384472   -0.00006014    4.60858884      42
Ni     1.79803342   -3.55493337    2.84796702      43
Ni     3.57096149   -1.76617953    2.86422550      44
Ni    -1.79034469   -3.55492829    2.84797717      45
Ni     3.57070272    1.76618923    2.86363915      46
Ni    -3.56297193    1.76618763    2.86362561      47
Ni    -1.79062135    3.55468763    2.84768709      48
Ni    -3.56329082   -1.76617692    2.86426252      49
Ni     1.79830905    3.55466715    2.84767998      50
Ni     0.00385630    1.77403344   -4.22803120      51
Ni    -1.76659994    0.00013767   -4.24994758      52
Ni     1.77432177    0.00013786   -4.24995100      53
Ni     0.00386565   -1.77405949   -4.22760197      54
Ni     0.00385411    3.61540775   -2.56465753      55
Ni    -3.52170276    0.00009936   -2.47167882      56
Ni     3.52941470    0.00008968   -2.47168375      57
Ni     0.00386632   -3.61684999   -2.56588947      58
Ni     0.00377223   -1.05295014    1.05094409      59
Ni     0.00392669    1.05297973    1.05612201      60
Ni    -3.56324871    1.76627470   -0.75701390      61
Ni    -1.79029426    3.55498976   -0.74077746      62
Ni    -3.56299801   -1.76612639   -0.75643503      63
Ni     1.79801085    3.55498231   -0.74078580      64
Ni     1.79832345   -3.55462039   -0.74049111      65
Ni     3.57067448   -1.76612171   -0.75641816      66
Ni    -1.79060992   -3.55460494   -0.74048541      67
Ni     3.57098549    1.76626973   -0.75704784      68
Ni    -1.67238333   -0.00040774   -0.62261107      69
Ni     0.00384061    1.91344439   -0.98066396      70
Ni     0.00387970   -1.91493117   -0.98406565      71
Ni     1.68009527   -0.00039120   -0.62262361      72
Ni     0.00386388   -1.91339262    3.08777508      73
Ni     1.68006988    0.00046475    2.72977860      74
Ni    -1.67237873    0.00044952    2.72978985      75
Ni     0.00382093    1.91497490    3.09116803      76
Ni     3.55924224    0.00003020    1.05357825      77
Ni     0.00384165   -3.49457158    1.05338712      78
Ni     0.00385895    3.49461994    1.05378301      79
Ni    -3.55153809    0.00005489    1.05359425      80
Ni    -1.80611174    1.76612320   -2.51271284      81
Ni    -1.80702632   -1.76636809   -2.51363998      82
Ni     1.81381398    1.76611883   -2.51270972      83
Ni     1.81474973   -1.76636829   -2.51365498      84
Ni     0.00385680    0.00011265   -2.50139626      85
Ni    -2.03213812    1.91406733    1.05285363      86
Ni     2.03985381   -1.91399265    1.05435964      87
Ni     2.03994485    1.91408990    1.05284385      88
Ni    -2.03225849   -1.91402132    1.05436999      89
