          48
Lattice="  31.6876   0.0000   0.0000   0.0000  31.6876   0.0000   0.0000   0.0000  31.6876 " ConfE="     -12976.1288" DelE="          0.0000"
Ni     1.80990236    3.56574714    2.81858902       1
Ni     3.56574715    1.80990234    2.81858902       2
Ni     3.56574715   -1.80990236    2.81858903       3
Ni    -1.80990235    3.56574714    2.81858902       4
Ni     1.80990236   -3.56574715    2.81858903       5
Ni    -1.80990235   -3.56574715    2.81858902       6
Ni    -3.56574714    1.80990234    2.81858902       7
Ni    -3.56574714   -1.80990236    2.81858902       8
Ni     0.00000001   -0.00000001    4.54651429       9
Ni     3.56574714   -1.80990236   -0.71331848      10
Ni     3.56574715    1.80990235   -0.71331848      11
Ni    -1.80990235    3.56574714   -0.71331848      12
Ni     1.80990236    3.56574714   -0.71331848      13
Ni     1.80990235   -3.56574715   -0.71331847      14
Ni    -3.56574714    1.80990235   -0.71331848      15
Ni    -1.80990235   -3.56574715   -0.71331848      16
Ni    -3.56574714   -1.80990236   -0.71331848      17
Ni     0.00000000    3.61845269   -2.56265626      18
Ni     0.00000000   -3.61845270   -2.56265625      19
Ni    -3.61845269   -0.00000001   -2.56265626      20
Ni     3.61845270   -0.00000001   -2.56265625      21
Ni     0.00000000   -1.76769140   -4.21848313      22
Ni    -1.76769139   -0.00000001   -4.21848313      23
Ni     1.76769140   -0.00000001   -4.21848313      24
Ni     0.00000000    1.76769139   -4.21848313      25
Ni     0.00000000    3.55353570    1.05263527      26
Ni     3.55353571   -0.00000001    1.05263527      27
Ni     0.00000000   -3.55353572    1.05263527      28
Ni    -3.55353570   -0.00000001    1.05263527      29
Ni     0.00000000    2.03513865    2.96701945      30
Ni     2.03513866   -0.00000001    2.96701945      31
Ni     0.00000000   -2.03513866    2.96701945      32
Ni    -2.03513865   -0.00000001    2.96701945      33
Ni    -1.79428153    1.79428153   -2.50155362      34
Ni     1.79428154    1.79428153   -2.50155361      35
Ni    -1.79428153   -1.79428154   -2.50155362      36
Ni     1.79428154   -1.79428154   -2.50155361      37
Ni     0.00000000   -0.00000001    2.10527054      38
Ni     0.00000000    0.00000000    0.00000000      39
Ni     1.67541096    1.67541095    1.05263527      40
Ni     1.67541096   -1.67541097    1.05263527      41
Ni    -1.67541096    1.67541095    1.05263527      42
Ni    -1.67541096   -1.67541097    1.05263527      43
Ni     2.03513866   -0.00000001   -0.86174891      44
Ni     0.00000000    2.03513864   -0.86174891      45
Ni     0.00000000   -2.03513866   -0.86174891      46
Ni    -2.03513865   -0.00000001   -0.86174891      47
Ni    -0.00000000   -0.00000001   -2.44124375      48
          48
Lattice="  31.6876   0.0000   0.0000   0.0000  31.6876   0.0000   0.0000   0.0000  31.6876 " ConfE="     -12975.9871" DelE="          0.1417"
Ni     1.80186349    3.56334764    2.83367923       1
Ni     3.55661748    1.79397694    2.83410353       2
Ni     3.54688766   -1.78605645    2.82133056       3
Ni    -1.80111060    3.56176538    2.83178426       4
Ni     1.78982317   -3.53432872    2.82819769       5
Ni    -1.78976757   -3.53433988    2.82831162       6
Ni    -3.55344967    1.79235269    2.83282087       7
Ni    -3.54573959   -1.78440297    2.82203521       8
Ni     0.00204306    0.01771210    4.52731841       9
Ni     3.56121947   -1.79168771   -0.70871079      10
Ni     3.60086740    1.84106553   -0.70952014      11
Ni    -1.78429976    3.53313532   -0.70447194      12
Ni     1.78442803    3.53524445   -0.70465471      13
Ni     1.92891354   -3.64612805   -0.70377535      14
Ni    -3.61798824    1.85966255   -0.71018950      15
Ni    -1.91552229   -3.63582410   -0.70375734      16
Ni    -3.57061600   -1.79860772   -0.70979520      17
Ni    -0.00040015    3.54883224   -2.49533063      18
Ni    -0.00044844   -3.69498090   -2.69438488      19
Ni    -3.61775840    0.00370709   -2.56524157      20
Ni     3.60045005    0.00293707   -2.54668681      21
Ni    -0.00065796   -1.77643960   -4.23875989      22
Ni    -1.78451048   -0.00192036   -4.23893981      23
Ni     1.78434443   -0.00185111   -4.24102966      24
Ni    -0.00044535    1.78958549   -4.25500889      25
Ni    -0.00042916    3.53327446    1.07047862      26
Ni     3.56158100    0.00235126    1.08595304      27
Ni    -0.00051192   -3.60260779    1.15197052      28
Ni    -3.57079604    0.00358125    1.09300568      29
Ni    -0.00010888    1.98812773    2.98936796      30
Ni     1.92839812   -0.00236954    2.94037058      31
Ni    -0.00039145   -1.85661426    2.89692255      32
Ni    -1.91452036   -0.00232666    2.93001669      33
Ni    -1.78695072    1.79017406   -2.49611901      34
Ni     1.78488564    1.78975054   -2.49580046      35
Ni    -1.74712053   -1.77027936   -2.43592345      36
Ni     1.75180458   -1.77623673   -2.44591486      37
Ni     0.01563232    0.14670276    1.73779710      38
Ni    -0.03848811   -0.38059669   -0.32601047      39
Ni     1.75288460    1.74089379    1.07082144      40
Ni     1.68671370   -1.71340830    1.00771401      41
Ni    -1.74773201    1.73073902    1.06487510      42
Ni    -1.69607755   -1.71488325    1.00938770      43
Ni     2.06242935    0.08592936   -0.79106725      44
Ni     0.00295425    1.87056680   -0.74200109      45
Ni     0.01534720   -2.44490554   -0.85182495      46
Ni    -2.11824180    0.09705723   -0.80225326      47
Ni     0.00279115    0.03690752   -2.57633874      48
          48
Lattice="  31.6876   0.0000   0.0000   0.0000  31.6876   0.0000   0.0000   0.0000  31.6876 " ConfE="     -12976.1286" DelE="          0.0002"
Ni     1.77839592    3.54871452    2.83768405       1
Ni     3.54597969    1.78301778    2.83929497       2
Ni     3.52448496   -1.75900259    2.81761240       3
Ni    -1.77850944    3.54874992    2.83770700       4
Ni     1.80968877   -3.52487132    2.85842318       5
Ni    -1.80971490   -3.52482387    2.85842444       6
Ni    -3.54610760    1.78309413    2.83934123       7
Ni    -3.52454825   -1.75895946    2.81762030       8
Ni    -0.00003250    0.01517207    4.57275420       9
Ni     3.55381562   -1.75938933   -0.70673936      10
Ni     3.61827461    1.85598949   -0.70620334      11
Ni    -1.76777564    3.51192265   -0.70585751      12
Ni     1.76758960    3.51189943   -0.70585307      13
Ni     2.03522124   -3.67361964   -0.70641574      14
Ni    -3.61859809    1.85626552   -0.70621770      15
Ni    -2.03501296   -3.67341679   -0.70639776      16
Ni    -3.55390018   -1.75933616   -0.70673823      17
Ni    -0.00008944    3.51165562   -2.47345576      18
Ni    -0.00001373   -3.67461932   -2.74371281      19
Ni    -3.56624287    0.00664126   -2.51671256      20
Ni     3.56600356    0.00652955   -2.51657958      21
Ni    -0.00001264   -1.75938070   -4.26025095      22
Ni    -1.80921472    0.00624375   -4.27139833      23
Ni     1.80913691    0.00621030   -4.27141690      24
Ni    -0.00007084    1.85436891   -4.32343730      25
Ni    -0.00007839    3.51210573    1.06180440      26
Ni     3.56562470    0.00691532    1.10320466      27
Ni    -0.00003697   -3.67238693    1.32647426      28
Ni    -3.56584541    0.00701925    1.10331708      29
Ni    -0.00004776    1.85789028    2.91324611      30
Ni     1.81077182    0.00728662    2.86008668      31
Ni    -0.00001171   -1.75916669    2.84705310      32
Ni    -1.81082405    0.00732630    2.86006297      33
Ni    -1.79409854    1.79473065   -2.50032185      34
Ni     1.79394606    1.79470009   -2.50028275      35
Ni    -1.67530810   -1.75978825   -2.38175924      36
Ni     1.67519548   -1.75985486   -2.38172101      37
Ni     0.00000523    0.15641375    1.33219730      38
Ni    -0.00041893   -0.70648702   -0.70141887      39
Ni     1.79433348    1.79477341    1.08787458      40
Ni     1.67569735   -1.75894343    0.96897005      41
Ni    -1.79448228    1.79480698    1.08791994      42
Ni    -1.67580275   -1.75885544    0.96901009      43
Ni     2.03508736    0.15465790   -0.70725813      44
Ni    -0.00011072    1.73464822   -0.70559985      45
Ni     0.00019367   -2.81157453   -0.70972425      46
Ni    -2.03564198    0.15492051   -0.70724236      47
Ni    -0.00000728    0.15340486   -2.73836516      48
