          48
Lattice="  31.6876   0.0000   0.0000   0.0000  31.6876   0.0000   0.0000   0.0000  31.6876 " ConfE="     -12976.1288" DelE="          0.0000"
Ni     1.80990236    3.56574714    2.81858902       1
Ni     3.56574715    1.80990234    2.81858902       2
Ni     3.56574715   -1.80990236    2.81858903       3
Ni    -1.80990235    3.56574714    2.81858902       4
Ni     1.80990236   -3.56574715    2.81858903       5
Ni    -1.80990235   -3.56574715    2.81858902       6
Ni    -3.56574714    1.80990234    2.81858902       7
Ni    -3.56574714   -1.80990236    2.81858902       8
Ni     0.00000001   -0.00000001    4.54651429       9
Ni     3.56574714   -1.80990236   -0.71331848      10
Ni     3.56574715    1.80990235   -0.71331848      11
Ni    -1.80990235    3.56574714   -0.71331848      12
Ni     1.80990236    3.56574714   -0.71331848      13
Ni     1.80990235   -3.56574715   -0.71331847      14
Ni    -3.56574714    1.80990235   -0.71331848      15
Ni    -1.80990235   -3.56574715   -0.71331848      16
Ni    -3.56574714   -1.80990236   -0.71331848      17
Ni     0.00000000    3.61845269   -2.56265626      18
Ni     0.00000000   -3.61845270   -2.56265625      19
Ni    -3.61845269   -0.00000001   -2.56265626      20
Ni     3.61845270   -0.00000001   -2.56265625      21
Ni     0.00000000   -1.76769140   -4.21848313      22
Ni    -1.76769139   -0.00000001   -4.21848313      23
Ni     1.76769140   -0.00000001   -4.21848313      24
Ni     0.00000000    1.76769139   -4.21848313      25
Ni     0.00000000    3.55353570    1.05263527      26
Ni     3.55353571   -0.00000001    1.05263527      27
Ni     0.00000000   -3.55353572    1.05263527      28
Ni    -3.55353570   -0.00000001    1.05263527      29
Ni     0.00000000    2.03513865    2.96701945      30
Ni     2.03513866   -0.00000001    2.96701945      31
Ni     0.00000000   -2.03513866    2.96701945      32
Ni    -2.03513865   -0.00000001    2.96701945      33
Ni    -1.79428153    1.79428153   -2.50155362      34
Ni     1.79428154    1.79428153   -2.50155361      35
Ni    -1.79428153   -1.79428154   -2.50155362      36
Ni     1.79428154   -1.79428154   -2.50155361      37
Ni     0.00000000   -0.00000001    2.10527054      38
Ni     0.00000000    0.00000000    0.00000000      39
Ni     1.67541096    1.67541095    1.05263527      40
Ni     1.67541096   -1.67541097    1.05263527      41
Ni    -1.67541096    1.67541095    1.05263527      42
Ni    -1.67541096   -1.67541097    1.05263527      43
Ni     2.03513866   -0.00000001   -0.86174891      44
Ni     0.00000000    2.03513864   -0.86174891      45
Ni     0.00000000   -2.03513866   -0.86174891      46
Ni    -2.03513865   -0.00000001   -0.86174891      47
Ni    -0.00000000   -0.00000001   -2.44124375      48
          48
Lattice="  31.6876   0.0000   0.0000   0.0000  31.6876   0.0000   0.0000   0.0000  31.6876 " ConfE="     -12975.7826" DelE="          0.3462"
Ni     1.79307096    3.58946071    2.84626300       1
Ni     3.58630620    1.85688048    2.85201432       2
Ni     3.58612128   -1.85695870    2.85210065       3
Ni    -1.77995690    3.58594904    2.83929854       4
Ni     1.79317547   -3.58996584    2.84645643       5
Ni    -1.78021454   -3.58609697    2.83915213       6
Ni    -3.50603247    1.76214018    2.79966202       7
Ni    -3.50592350   -1.76216389    2.79954126       8
Ni     0.05646493   -0.00021413    4.50405026       9
Ni     3.50524876   -1.76221110   -0.69409623      10
Ni     3.50510419    1.76181581   -0.69396684      11
Ni    -1.78773131    3.59227875   -0.73444700      12
Ni     1.78571352    3.58519251   -0.72614332      13
Ni     1.78547910   -3.58541412   -0.72630521      14
Ni    -3.58550557    1.87124897   -0.74075597      15
Ni    -1.78767202   -3.59220469   -0.73429137      16
Ni    -3.58579495   -1.87167462   -0.74066121      17
Ni     0.00310350    3.58253028   -2.50590305      18
Ni     0.00306638   -3.58244872   -2.50559092      19
Ni    -3.81696851    0.00001675   -2.76325721      20
Ni     3.48930817   -0.00014392   -2.43606226      21
Ni    -0.01090772   -1.76279517   -4.21455679      22
Ni    -1.79634314   -0.00009885   -4.18570476      23
Ni     1.73237935   -0.00010405   -4.20135147      24
Ni    -0.01092646    1.76263662   -4.21450493      25
Ni     0.00494901    3.59467838    1.05826465      26
Ni     3.45153236   -0.00025897    1.10961468      27
Ni     0.00479175   -3.59488363    1.05820743      28
Ni    -3.44195563    0.00002239    0.98624801      29
Ni     0.00686702    1.90599858    2.86477787      30
Ni     2.20972128    0.00026109    3.26180246      31
Ni     0.00662517   -1.90722298    2.86540441      32
Ni    -1.67479705   -0.00009712    2.72476932      33
Ni    -1.79365492    1.87196432   -2.53283351      34
Ni     1.74624285    1.76188559   -2.45223113      35
Ni    -1.79361269   -1.87243579   -2.53307639      36
Ni     1.74607410   -1.76204048   -2.45207734      37
Ni     0.70298923   -0.00129309    1.75859277      38
Ni    -0.78092537    0.00104007    0.27470630      39
Ni     1.81100908    1.90499804    1.06110723      40
Ni     1.81158030   -1.90626679    1.06092138      41
Ni    -1.80203485    1.91519788    1.05930452      42
Ni    -1.80150683   -1.91439519    1.05907097      43
Ni     1.67051663   -0.00014475   -0.62019758      44
Ni     0.00517467    1.91422472   -0.74826593      45
Ni     0.00488050   -1.91347222   -0.74768246      46
Ni    -2.27462260   -0.00059486   -1.22345838      47
Ni    -0.06632460   -0.00002361   -2.38914518      48
          48
Lattice="  31.6876   0.0000   0.0000   0.0000  31.6876   0.0000   0.0000   0.0000  31.6876 " ConfE="     -12976.1283" DelE="          0.0005"
Ni     1.76630914    3.56654814    2.86301638       1
Ni     3.55424338    1.79442466    2.84760757       2
Ni     3.55424628   -1.79444077    2.84761001       3
Ni    -1.76554878    3.56612294    2.86178695       4
Ni     1.76631039   -3.56656003    2.86302047       5
Ni    -1.76555067   -3.56613259    2.86179158       6
Ni    -3.55347911    1.79432867    2.84577837       7
Ni    -3.55348094   -1.79433648    2.84577994       8
Ni     0.00076583   -0.00000622    4.60613833       9
Ni     3.55320139   -1.79433481   -0.74054406      10
Ni     3.55320036    1.79431956   -0.74054467      11
Ni    -1.76654455    3.56646376   -0.75773261      12
Ni     1.76530084    3.56611996   -0.75658943      13
Ni     1.76530160   -3.56613158   -0.75658951      14
Ni    -3.55442423    1.79439294   -0.74239683      15
Ni    -1.76654583   -3.56647302   -0.75773312      16
Ni    -3.55442443   -1.79439978   -0.74239573      17
Ni    -0.00087774    3.52488993   -2.47157872      18
Ni    -0.00087831   -3.52490007   -2.47157963      19
Ni    -3.61553283   -0.00000318   -2.56600212      20
Ni     3.61480625   -0.00000813   -2.56517659      21
Ni    -0.00118351   -1.77045228   -4.24871423      22
Ni    -1.77475990   -0.00000434   -4.22700934      23
Ni     1.77265125   -0.00000664   -4.22605487      24
Ni    -0.00118295    1.77044157   -4.24871350      25
Ni    -0.00016199    3.55428543    1.05260675      26
Ni     3.49351549   -0.00000823    1.05340880      27
Ni    -0.00016168   -3.55429628    1.05260888      28
Ni    -3.49357604   -0.00000440    1.05180710      29
Ni     0.00013195    1.67583115    2.72800973      30
Ni     1.91412625   -0.00000921    3.08734275      31
Ni     0.00013141   -1.67584691    2.72801429      32
Ni    -1.91383194   -0.00000521    3.08820547      33
Ni    -1.76678329    1.81008088   -2.51318328      34
Ni     1.76499416    1.81041988   -2.51274805      35
Ni    -1.76678408   -1.81008972   -2.51318310      36
Ni     1.76499500   -1.81043380   -2.51274930      37
Ni     1.05279762   -0.00000658    1.05181936      38
Ni    -1.05246847   -0.00000802    1.05313535      39
Ni     1.91374678    2.03551736    1.05369599      40
Ni     1.91374767   -2.03552986    1.05369864      41
Ni    -1.91399150    2.03533579    1.05161999      42
Ni    -1.91399342   -2.03535028    1.05162207      43
Ni     1.91362947   -0.00000802   -0.98337174      44
Ni    -0.00027899    1.67585494   -0.62286121      45
Ni    -0.00027961   -1.67586574   -0.62285889      46
Ni    -1.91429513   -0.00000383   -0.98219273      47
Ni    -0.00099200   -0.00000625   -2.50104218      48
