          89
Lattice="  21.1372   0.0000   0.0000   0.0000  21.1372   0.0000   0.0000   0.0000  21.1372 " ConfE="      -3844.7370" DelE="          0.0000"
Ni     0.00349563    0.00002024   -5.98169857       1
Ni    -3.54257662    3.54621385   -2.48917475       2
Ni     3.54944745   -3.54590132   -2.48860793       3
Ni    -3.54257947   -3.54617679   -2.48918002       4
Ni     3.54944801    3.54594313   -2.48860621       5
Ni    -3.54062300    1.77818332   -4.25625343       6
Ni    -1.77445817    3.54415701   -4.25607109       7
Ni    -3.54062478   -1.77814456   -4.25625670       8
Ni     1.78143108    3.54398914   -4.25575891       9
Ni     1.78143226   -3.54394887   -4.25576073      10
Ni     3.54729908   -1.77775902   -4.25554057      11
Ni    -1.77445989   -3.54412024   -4.25607613      12
Ni     3.54729989    1.77780074   -4.25554064      13
Ni     3.62443240    0.00002720    4.67176625      14
Ni     0.00435440   -3.61889812    4.66998328      15
Ni     0.00435385    3.61896686    4.67001070      16
Ni    -3.61364741    0.00002471    4.66829396      17
Ni    -1.76636722    5.30363778    1.05381391      18
Ni    -5.29974169    1.77015380    1.05376816      19
Ni     5.30741101    1.77046376    1.05419286      20
Ni    -1.76636591   -5.30359517    1.05380961      21
Ni     5.30740875   -1.77041469    1.05419001      22
Ni     1.77421793   -5.30372569    1.05427402      23
Ni     1.77422136    5.30377066    1.05427744      24
Ni    -5.29974176   -1.77010969    1.05376481      25
Ni    -5.27741800    0.00002110   -0.72045813      26
Ni     0.00379468    5.28134539   -0.72019635      27
Ni     0.00379407   -5.28130234   -0.72020031      28
Ni     5.28508484    0.00002367   -0.71985969      29
Ni     0.00412856   -5.28163313    2.82811940      30
Ni     5.28537157    0.00002633    2.82850342      31
Ni    -5.27786417    0.00002381    2.82750972      32
Ni     0.00412908    5.28167591    2.82812753      33
Ni     1.79871682   -1.79455594    4.60908089      34
Ni    -1.78999843    1.79417070    4.60901915      35
Ni     1.79872315    1.79461341    4.60908703      36
Ni    -1.78999472   -1.79412032    4.60901712      37
Ni    -3.52115016    3.52494044    1.05384546      38
Ni     3.52896985   -3.52523680    1.05421949      39
Ni     3.52897383    3.52528528    1.05422259      40
Ni    -3.52114981   -3.52489663    1.05384163      41
Ni     0.00509158    0.00003028    4.54849812      42
Ni     1.81401121   -3.56649817    2.82055964      43
Ni     3.57154081   -1.81095787    2.82071272      44
Ni    -1.80623744   -3.56680756    2.82011977      45
Ni     3.57154195    1.81100904    2.82071738      46
Ni    -3.56178099    1.80938728    2.81980771      47
Ni    -1.80624732    3.56686417    2.82012806      48
Ni    -3.56178295   -1.80934328    2.81980402      49
Ni     1.81402437    3.56655906    2.82056773      50
Ni     0.00341487    1.76771888   -4.22001824      51
Ni    -1.76432019    0.00001993   -4.22011686      52
Ni     1.77095447    0.00002057   -4.21997380      53
Ni     0.00341514   -1.76767950   -4.22001879      54
Ni     0.00348170    3.61899764   -2.56257299      55
Ni    -3.61615371    0.00001914   -2.56366170      56
Ni     3.62147042    0.00002129   -2.56132049      57
Ni     0.00348101   -3.61896841   -2.56258780      58
Ni     0.00933767    0.00006012    2.10589713      59
Ni     0.00000000    0.00000000    0.00000000      60
Ni    -3.56350548    1.81084672   -0.71274490      61
Ni    -1.80651434    3.56676982   -0.71250866      62
Ni    -3.56350729   -1.81080652   -0.71274875      63
Ni     1.81410448    3.56695505   -0.71212268      64
Ni     1.81410767   -3.56691552   -0.71212732      65
Ni     3.56991423   -1.80982516   -0.71197877      66
Ni    -1.80652190   -3.56673393   -0.71251383      67
Ni     3.56991669    1.80987388   -0.71197604      68
Ni    -2.03466518    0.00001956   -0.86189188      69
Ni     0.00418538    2.03595509   -0.86050169      70
Ni     0.00417998   -2.03593834   -0.86052124      71
Ni     2.03760446    0.00002799   -0.85918951      72
Ni     0.00323617   -2.03537575    2.96845203      73
Ni     2.04308496    0.00002411    2.96996867      74
Ni    -2.02793120    0.00001846    2.96701985      75
Ni     0.00324163    2.03547016    2.96848083      76
Ni     3.55889837    0.00002521    1.05420263      77
Ni     0.00395717   -3.55487576    1.05407882      78
Ni     0.00395869    3.55492315    1.05408258      79
Ni    -3.55076365    0.00002125    1.05411909      80
Ni    -1.79092012    1.79457004   -2.50148080      81
Ni    -1.79092484   -1.79453338   -2.50148714      82
Ni     1.79776011    1.79416793   -2.50120039      83
Ni     1.79776087   -1.79412488   -2.50119974      84
Ni     0.00305109    0.00001790   -2.44134548      85
Ni    -1.67165567    1.67571976    1.05328519      86
Ni     1.67997605   -1.67596627    1.05435165      87
Ni     1.67997887    1.67601941    1.05436067      88
Ni    -1.67165490   -1.67567176    1.05327841      89
          89
Lattice="  21.1372   0.0000   0.0000   0.0000  21.1372   0.0000   0.0000   0.0000  21.1372 " ConfE="      -3844.5959" DelE="          0.1411"
Ni     0.00368801   -0.00280997   -5.98473890       1
Ni    -3.54964001    3.53741481   -2.49818965       2
Ni     3.54595810   -3.54729312   -2.48571718       3
Ni    -3.53948725   -3.54851737   -2.48741211       4
Ni     3.55874128    3.53782221   -2.49835509       5
Ni    -3.53013394    1.77154306   -4.24393969       6
Ni    -1.79627001    3.53588394   -4.26764186       7
Ni    -3.53914490   -1.78196334   -4.25417464       8
Ni     1.80423613    3.53652689   -4.26794347       9
Ni     1.77421723   -3.54136426   -4.24689344      10
Ni     3.54567375   -1.78080687   -4.25241142      11
Ni    -1.76709096   -3.54161512   -4.24740719      12
Ni     3.53787836    1.77050335   -4.24313783      13
Ni     3.59089284   -0.00131130    4.63761511      14
Ni     0.00403020   -3.61350899    4.66572312      15
Ni     0.00440915    3.56226263    4.61126714      16
Ni    -3.58015725   -0.00111594    4.63438334      17
Ni    -1.77811783    5.31144087    1.07555970      18
Ni    -5.30155040    1.76669700    1.06172393      19
Ni     5.30888397    1.76609161    1.06198192      20
Ni    -1.76278745   -5.29386079    1.05779697      21
Ni     5.31154041   -1.77611214    1.06863704      22
Ni     1.77023466   -5.29385060    1.05815674      23
Ni     1.78730701    5.31221663    1.07662884      24
Ni    -5.30521864   -1.77679566    1.06899659      25
Ni    -5.27258357   -0.00761774   -0.71252138      26
Ni     0.00497690    5.23238864   -0.72146249      27
Ni     0.00352961   -5.27797939   -0.70651428      28
Ni     5.28122344   -0.00721581   -0.71118683      29
Ni     0.00374783   -5.28463733    2.83054006      30
Ni     5.30160402   -0.00139925    2.83750316      31
Ni    -5.29494085   -0.00122772    2.83768614      32
Ni     0.00439264    5.31608036    2.85671975      33
Ni     1.80201979   -1.79529076    4.61699630      34
Ni    -1.77874463    1.78086589    4.60861340      35
Ni     1.78795492    1.78158681    4.60952438      36
Ni    -1.79317704   -1.79433081    4.61621993      37
Ni    -3.54272024    3.52790023    1.08083252      38
Ni     3.53936248   -3.53860387    1.06803518      39
Ni     3.55172668    3.52782546    1.08211506      40
Ni    -3.53145786   -3.53856034    1.06840704      41
Ni     0.00499788   -0.01708945    4.53124690      42
Ni     1.80526460   -3.56369924    2.83510992      43
Ni     3.56029096   -1.79372984    2.83615485      44
Ni    -1.79722340   -3.56278409    2.83398735      45
Ni     3.55221322    1.78604277    2.82479651      46
Ni    -3.54318105    1.78544275    2.82430533      47
Ni    -1.78670210    3.53575278    2.83210067      48
Ni    -3.55091313   -1.79261990    2.83499478      49
Ni     1.79540894    3.53574471    2.83237603      50
Ni     0.00369643    1.77402813   -4.23971596      51
Ni    -1.78043765    0.00014367   -4.24074206      52
Ni     1.78808573   -0.00001224   -4.24142430      53
Ni     0.00356821   -1.79154109   -4.25679586      54
Ni     0.00374764    3.69095381   -2.69049938      55
Ni    -3.60871204   -0.00456603   -2.55875004      56
Ni     3.60963691   -0.00447239   -2.55092446      57
Ni     0.00351433   -3.55098065   -2.49546438      58
Ni     0.01066962   -0.14254619    1.74026176      59
Ni    -0.01116473    0.37717750   -0.32726613      60
Ni    -3.56441338    1.79587824   -0.70733296      61
Ni    -1.91556755    3.63846405   -0.70146020      62
Ni    -3.61001189   -1.85472623   -0.70849410      63
Ni     1.92935353    3.64250474   -0.70084863      64
Ni     1.78879847   -3.53656900   -0.70271027      65
Ni     3.61108801   -1.84786902   -0.70754858      66
Ni    -1.78123953   -3.53552957   -0.70292471      67
Ni     3.56885155    1.79298125   -0.70623850      68
Ni    -2.09852205   -0.09485666   -0.79673022      69
Ni     0.01035403    2.44472545   -0.84418899      70
Ni     0.00509777   -1.87400028   -0.74149000      71
Ni     2.08468179   -0.09072693   -0.79144371      72
Ni     0.00397501   -1.98678591    2.99074813      73
Ni     1.92904605    0.00294144    2.94100534      74
Ni    -1.91496000    0.00307980    2.93632604      75
Ni     0.00420727    1.85900388    2.90236938      76
Ni     3.56974764   -0.00321606    1.09114754      77
Ni     0.00363435   -3.53529006    1.07259466      78
Ni     0.00426478    3.60470829    1.15727137      79
Ni    -3.56507619   -0.00333545    1.09309983      80
Ni    -1.74298728    1.77010131   -2.43651693      81
Ni    -1.78319193   -1.79172122   -2.49552639      82
Ni     1.75290031    1.77217614   -2.44012372      83
Ni     1.78998179   -1.79154644   -2.49504477      84
Ni     0.00495588   -0.04027375   -2.57744568      85
Ni    -1.68836018    1.71406695    1.01125869      86
Ni     1.75418616   -1.73766227    1.07160514      87
Ni     1.69346767    1.71350469    1.01116964      88
Ni    -1.74401101   -1.73323461    1.06874119      89
          89
Lattice="  21.1372   0.0000   0.0000   0.0000  21.1372   0.0000   0.0000   0.0000  21.1372 " ConfE="      -3844.7370" DelE="         -0.0000"
Ni     0.00385446   -0.01451055   -5.98753363       1
Ni    -3.56286317    3.52550673   -2.51614739       2
Ni     3.54794553   -3.54981348   -2.48342166       3
Ni    -3.54025509   -3.54982679   -2.48342306       4
Ni     3.57063043    3.52554782   -2.51621784       5
Ni    -3.52103442    1.75915541   -4.23078599       6
Ni    -1.80692634    3.52573781   -4.27312806       7
Ni    -3.54206010   -1.78302029   -4.25165094       8
Ni     1.81467935    3.52576864   -4.27315969       9
Ni     1.78157455   -3.54954674   -4.24960013      10
Ni     3.54976025   -1.78300808   -4.25165635      11
Ni    -1.77388328   -3.54955006   -4.24959402      12
Ni     3.52876436    1.75917823   -4.23081513      13
Ni     3.54832889   -0.00544081    4.59850662      14
Ni     0.00383535   -3.56412892    4.61950566      15
Ni     0.00385418    3.53290331    4.57543103      16
Ni    -3.54064618   -0.00546007    4.59852351      17
Ni    -1.79027963    5.31424313    1.08813292      18
Ni    -5.29987876    1.75873607    1.06458866      19
Ni     5.30757013    1.75875354    1.06456024      20
Ni    -1.75833263   -5.28304906    1.05677196      21
Ni     5.31138342   -1.78019984    1.07481111      22
Ni     1.76601514   -5.28304478    1.05676324      23
Ni     1.79801651    5.31424773    1.08812467      24
Ni    -5.30372275   -1.78023057    1.07484865      25
Ni    -5.27777884   -0.01512000   -0.70551057      26
Ni     0.00388911    5.25441839   -0.70656712      27
Ni     0.00383970   -5.27572145   -0.70521556      28
Ni     5.28548251   -0.01509269   -0.70553356      29
Ni     0.00383851   -5.28590012    2.82290507      30
Ni     5.30792619   -0.00537794    2.83822864      31
Ni    -5.30025892   -0.00539926    2.83827456      32
Ni     0.00386865    5.37443756    2.91189151      33
Ni     1.78445882   -1.78062966    4.60202407      34
Ni    -1.76658896    1.75883231    4.59777553      35
Ni     1.77428300    1.75884474    4.59776834      36
Ni    -1.77678187   -1.78063925    4.60202798      37
Ni    -3.56306152    3.52514579    1.10447565      38
Ni     3.54832797   -3.55031121    1.07274736      39
Ni     3.57079949    3.52517463    1.10448002      40
Ni    -3.54065458   -3.55034044    1.07278514      41
Ni     0.00383760   -0.01547230    4.57573776      42
Ni     1.78232290   -3.55060878    2.83895681      43
Ni     3.55038131   -1.78380760    2.84079078      44
Ni    -1.77463487   -3.55061900    2.83897859      45
Ni     3.52909296    1.75881411    2.81932104      46
Ni    -3.52140799    1.75880251    2.81934551      47
Ni    -1.80602122    3.52501741    2.86032455      48
Ni    -3.54271846   -1.78383021    2.84082710      49
Ni     1.81373039    3.52503971    2.86031548      50
Ni     0.00387485    1.75887952   -4.26043446      51
Ni    -1.80549038   -0.00680259   -4.27143821      52
Ni     1.81322999   -0.00679375   -4.27147231      53
Ni     0.00385200   -1.85530343   -4.32333311      54
Ni     0.00388840    3.67485160   -2.74425000      55
Ni    -3.56296988   -0.00711784   -2.51589919      56
Ni     3.57063898   -0.00708915   -2.51588467      57
Ni     0.00384159   -3.51412718   -2.47276568      58
Ni     0.00384688   -0.15689823    1.33331930      59
Ni     0.00369581    0.70725681   -0.70042947      60
Ni    -3.55103007    1.75892530   -0.70568412      61
Ni    -2.03204802    3.67349919   -0.70545568      62
Ni    -3.61509967   -1.85702282   -0.70529547      63
Ni     2.03991986    3.67360053   -0.70550698      64
Ni     1.77161958   -3.51437229   -0.70502800      65
Ni     3.62270809   -1.85692118   -0.70531432      66
Ni    -1.76393715   -3.51436596   -0.70502060      67
Ni     3.55873813    1.75894209   -0.70571363      68
Ni    -2.03162192   -0.15549402   -0.70637564      69
Ni     0.00397993    2.81315136   -0.70948440      70
Ni     0.00383865   -1.73543816   -0.70458099      71
Ni     2.03912730   -0.15537306   -0.70642511      72
Ni     0.00384786   -1.85869128    2.91473612      73
Ni     1.81478980   -0.00766927    2.86186944      74
Ni    -1.80710246   -0.00768041    2.86187680      75
Ni     0.00385524    1.75882019    2.84925848      76
Ni     3.57031465   -0.00750563    1.10433242      77
Ni     0.00384049   -3.51458195    1.06279401      78
Ni     0.00384225    3.67228719    1.32812225      79
Ni    -3.56268058   -0.00753497    1.10440203      80
Ni    -1.67180808    1.75973176   -2.38129183      81
Ni    -1.79028668   -1.79599675   -2.49966205      82
Ni     1.67954017    1.75976543   -2.38131142      83
Ni     1.79799834   -1.79600743   -2.49966686      84
Ni     0.00389886   -0.15403410   -2.73762037      85
Ni    -1.67214251    1.75869518    0.97035426      86
Ni     1.79840069   -1.79604174    1.08904290      87
Ni     1.67983717    1.75873457    0.97032610      88
Ni    -1.79074445   -1.79607161    1.08908306      89
