          89
Lattice="  21.1372   0.0000   0.0000   0.0000  21.1372   0.0000   0.0000   0.0000  21.1372 " ConfE="      -3844.7370" DelE="          0.0000"
Ni     0.00349563    0.00002024   -5.98169857       1
Ni    -3.54257662    3.54621385   -2.48917475       2
Ni     3.54944745   -3.54590132   -2.48860793       3
Ni    -3.54257947   -3.54617679   -2.48918002       4
Ni     3.54944801    3.54594313   -2.48860621       5
Ni    -3.54062300    1.77818332   -4.25625343       6
Ni    -1.77445817    3.54415701   -4.25607109       7
Ni    -3.54062478   -1.77814456   -4.25625670       8
Ni     1.78143108    3.54398914   -4.25575891       9
Ni     1.78143226   -3.54394887   -4.25576073      10
Ni     3.54729908   -1.77775902   -4.25554057      11
Ni    -1.77445989   -3.54412024   -4.25607613      12
Ni     3.54729989    1.77780074   -4.25554064      13
Ni     3.62443240    0.00002720    4.67176625      14
Ni     0.00435440   -3.61889812    4.66998328      15
Ni     0.00435385    3.61896686    4.67001070      16
Ni    -3.61364741    0.00002471    4.66829396      17
Ni    -1.76636722    5.30363778    1.05381391      18
Ni    -5.29974169    1.77015380    1.05376816      19
Ni     5.30741101    1.77046376    1.05419286      20
Ni    -1.76636591   -5.30359517    1.05380961      21
Ni     5.30740875   -1.77041469    1.05419001      22
Ni     1.77421793   -5.30372569    1.05427402      23
Ni     1.77422136    5.30377066    1.05427744      24
Ni    -5.29974176   -1.77010969    1.05376481      25
Ni    -5.27741800    0.00002110   -0.72045813      26
Ni     0.00379468    5.28134539   -0.72019635      27
Ni     0.00379407   -5.28130234   -0.72020031      28
Ni     5.28508484    0.00002367   -0.71985969      29
Ni     0.00412856   -5.28163313    2.82811940      30
Ni     5.28537157    0.00002633    2.82850342      31
Ni    -5.27786417    0.00002381    2.82750972      32
Ni     0.00412908    5.28167591    2.82812753      33
Ni     1.79871682   -1.79455594    4.60908089      34
Ni    -1.78999843    1.79417070    4.60901915      35
Ni     1.79872315    1.79461341    4.60908703      36
Ni    -1.78999472   -1.79412032    4.60901712      37
Ni    -3.52115016    3.52494044    1.05384546      38
Ni     3.52896985   -3.52523680    1.05421949      39
Ni     3.52897383    3.52528528    1.05422259      40
Ni    -3.52114981   -3.52489663    1.05384163      41
Ni     0.00509158    0.00003028    4.54849812      42
Ni     1.81401121   -3.56649817    2.82055964      43
Ni     3.57154081   -1.81095787    2.82071272      44
Ni    -1.80623744   -3.56680756    2.82011977      45
Ni     3.57154195    1.81100904    2.82071738      46
Ni    -3.56178099    1.80938728    2.81980771      47
Ni    -1.80624732    3.56686417    2.82012806      48
Ni    -3.56178295   -1.80934328    2.81980402      49
Ni     1.81402437    3.56655906    2.82056773      50
Ni     0.00341487    1.76771888   -4.22001824      51
Ni    -1.76432019    0.00001993   -4.22011686      52
Ni     1.77095447    0.00002057   -4.21997380      53
Ni     0.00341514   -1.76767950   -4.22001879      54
Ni     0.00348170    3.61899764   -2.56257299      55
Ni    -3.61615371    0.00001914   -2.56366170      56
Ni     3.62147042    0.00002129   -2.56132049      57
Ni     0.00348101   -3.61896841   -2.56258780      58
Ni     0.00933767    0.00006012    2.10589713      59
Ni     0.00000000    0.00000000    0.00000000      60
Ni    -3.56350548    1.81084672   -0.71274490      61
Ni    -1.80651434    3.56676982   -0.71250866      62
Ni    -3.56350729   -1.81080652   -0.71274875      63
Ni     1.81410448    3.56695505   -0.71212268      64
Ni     1.81410767   -3.56691552   -0.71212732      65
Ni     3.56991423   -1.80982516   -0.71197877      66
Ni    -1.80652190   -3.56673393   -0.71251383      67
Ni     3.56991669    1.80987388   -0.71197604      68
Ni    -2.03466518    0.00001956   -0.86189188      69
Ni     0.00418538    2.03595509   -0.86050169      70
Ni     0.00417998   -2.03593834   -0.86052124      71
Ni     2.03760446    0.00002799   -0.85918951      72
Ni     0.00323617   -2.03537575    2.96845203      73
Ni     2.04308496    0.00002411    2.96996867      74
Ni    -2.02793120    0.00001846    2.96701985      75
Ni     0.00324163    2.03547016    2.96848083      76
Ni     3.55889837    0.00002521    1.05420263      77
Ni     0.00395717   -3.55487576    1.05407882      78
Ni     0.00395869    3.55492315    1.05408258      79
Ni    -3.55076365    0.00002125    1.05411909      80
Ni    -1.79092012    1.79457004   -2.50148080      81
Ni    -1.79092484   -1.79453338   -2.50148714      82
Ni     1.79776011    1.79416793   -2.50120039      83
Ni     1.79776087   -1.79412488   -2.50119974      84
Ni     0.00305109    0.00001790   -2.44134548      85
Ni    -1.67165567    1.67571976    1.05328519      86
Ni     1.67997605   -1.67596627    1.05435165      87
Ni     1.67997887    1.67601941    1.05436067      88
Ni    -1.67165490   -1.67567176    1.05327841      89
          89
Lattice="  21.1372   0.0000   0.0000   0.0000  21.1372   0.0000   0.0000   0.0000  21.1372 " ConfE="      -3844.5964" DelE="          0.1405"
Ni     0.00288867    0.00004309   -5.98391571       1
Ni    -3.54278572    3.54224776   -2.48604376       2
Ni     3.54315727   -3.55627710   -2.49924503       3
Ni    -3.54227358   -3.54194797   -2.48557875       4
Ni     3.54304587    3.55618635   -2.49922394       5
Ni    -3.53582237    1.76982405   -4.24595015       6
Ni    -1.77652091    3.54192763   -4.25260018       7
Ni    -3.53566133   -1.76979687   -4.24579089       8
Ni     1.77594638    3.53577957   -4.24444403       9
Ni     1.77575204   -3.53567561   -4.24419539      10
Ni     3.54247874   -1.80263026   -4.27026461      11
Ni    -1.77605029   -3.54162083   -4.25209063      12
Ni     3.54230468    1.80274090   -4.27019931      13
Ni     3.56249067    0.00012100    4.60783915      14
Ni     0.00143010   -3.58617803    4.63580589      15
Ni     0.00132507    3.58575548    4.63522707      16
Ni    -3.61354126    0.00001340    4.66906308      17
Ni    -1.77321190    5.30924294    1.06846900      18
Ni    -5.28937579    1.76661940    1.05782687      19
Ni     5.31463689    1.78242215    1.07401880      20
Ni    -1.77273112   -5.30871211    1.06827570      21
Ni     5.31473468   -1.78224703    1.07422942      22
Ni     1.76964546   -5.30587465    1.06101839      23
Ni     1.76970273    5.30619736    1.06107382      24
Ni    -5.28927112   -1.76656493    1.05788406      25
Ni    -5.27379883    0.00003690   -0.70590987      26
Ni    -0.00377086    5.27877408   -0.71250985      27
Ni    -0.00344734   -5.27889812   -0.71217692      28
Ni     5.23548835   -0.00003453   -0.72423803      29
Ni     0.00171041   -5.29834693    2.83670283      30
Ni     5.31702803    0.00013248    2.85354581      31
Ni    -5.28016169    0.00002655    2.83059204      32
Ni     0.00153836    5.29884896    2.83696896      33
Ni     1.78335466   -1.78275773    4.60656684      34
Ni    -1.79244801    1.79881875    4.61630016      35
Ni     1.78313214    1.78290543    4.60647226      36
Ni    -1.79257558   -1.79882719    4.61638916      37
Ni    -3.53540293    3.53672620    1.06787569      38
Ni     3.53123793   -3.54833466    1.08044116      39
Ni     3.53132391    3.54850269    1.08025158      40
Ni    -3.53517679   -3.53666053    1.06769991      41
Ni    -0.01559767   -0.00006179    4.52848365      42
Ni     1.78877308   -3.54866391    2.82331211      43
Ni     3.53730529   -1.78992491    2.82898610      44
Ni    -1.79058022   -3.55750293    2.83583549      45
Ni     3.53744653    1.79033677    2.82913512      46
Ni    -3.56147717    1.80338761    2.83513212      47
Ni    -1.79054537    3.55735903    2.83570012      48
Ni    -3.56156551   -1.80331941    2.83532965      49
Ni     1.78856545    3.54881850    2.82339640      50
Ni     0.00598032    1.78355452   -4.23906119      51
Ni    -1.78338183    0.00007398   -4.25334898      52
Ni     1.77939879    0.00014506   -4.23922724      53
Ni     0.00602540   -1.78340332   -4.23914916      54
Ni     0.00010383    3.61026741   -2.55496684      55
Ni    -3.54359410    0.00007047   -2.49234770      56
Ni     3.70144181    0.00016170   -2.69946850      57
Ni     0.00028200   -3.60832138   -2.55290056      58
Ni    -0.15042854   -0.00143036    1.74560137      59
Ni     0.39317206    0.00408190   -0.31462390      60
Ni    -3.52981975    1.78377264   -0.70235228      61
Ni    -1.84662865    3.61100695   -0.70826240      62
Ni    -3.52991976   -1.78365015   -0.70230298      63
Ni     1.79765153    3.56818557   -0.70825874      64
Ni     1.79699953   -3.56697156   -0.70801341      65
Ni     3.64515688   -1.92506116   -0.70232190      66
Ni    -1.84457544   -3.60908722   -0.70807103      67
Ni     3.64413550    1.92403808   -0.70239186      68
Ni    -1.86101588   -0.00014763   -0.73743280      69
Ni    -0.08877316    2.09022299   -0.79598051      70
Ni    -0.08754723   -2.08426495   -0.79470898      71
Ni     2.45351545   -0.00137270   -0.85748539      72
Ni     0.00570596   -1.92490262    2.93783806      73
Ni     1.85874201    0.00029654    2.89716404      74
Ni    -1.99132027    0.00013055    2.99494037      75
Ni     0.00563820    1.92381120    2.93677622      76
Ni     3.60466436    0.00029980    1.15146922      77
Ni     0.00011391   -3.56732924    1.08961664      78
Ni    -0.00012815    3.56851491    1.09024211      79
Ni    -3.53029885    0.00013181    1.07225510      80
Ni    -1.78618291    1.78582402   -2.49472797      81
Ni    -1.78603917   -1.78544468   -2.49458015      82
Ni     1.77813188    1.75142975   -2.44092555      83
Ni     1.77875030   -1.75163900   -2.44184287      84
Ni    -0.03004161   -0.00012773   -2.56882280      85
Ni    -1.73329883    1.75222853    1.07113450      86
Ni     1.71786032   -1.69275829    1.01070091      87
Ni     1.71804073    1.69423064    1.01089569      88
Ni    -1.73426768   -1.75250036    1.07178119      89
          89
Lattice="  21.1372   0.0000   0.0000   0.0000  21.1372   0.0000   0.0000   0.0000  21.1372 " ConfE="      -3844.7370" DelE="          0.0000"
Ni    -0.01065943    0.00002391   -5.98751587       1
Ni    -3.54597946    3.54413295   -2.48340200       2
Ni     3.52936282   -3.56673345   -2.51616878       3
Ni    -3.54597059   -3.54408074   -2.48339560       4
Ni     3.52935752    3.56676874   -2.51616062       5
Ni    -3.54569694    1.77775092   -4.24956717       6
Ni    -1.77917368    3.54593736   -4.25163237       7
Ni    -3.54569219   -1.77770057   -4.24956410       8
Ni     1.76300152    3.52493676   -4.23079308       9
Ni     1.76300534   -3.52489280   -4.23079287      10
Ni     3.52959331   -1.81080134   -4.27314899      11
Ni    -1.77916647   -3.54588736   -4.25162644      12
Ni     3.52958947    1.81084126   -4.27314717      13
Ni     3.53671713    0.00002354    4.57543976      14
Ni    -0.00161665   -3.54449115    4.59853084      15
Ni    -0.00162213    3.54454007    4.59853535      16
Ni    -3.56032401    0.00002685    4.61954129      17
Ni    -1.77639320    5.30760715    1.07485117      18
Ni    -5.27921844    1.76220918    1.05678592      19
Ni     5.31805417    1.79417083    1.08812361      20
Ni    -1.77638270   -5.30755441    1.07484494      21
Ni     5.31805310   -1.79412778    1.08812466      22
Ni     1.76258149   -5.30372763    1.06457835      23
Ni     1.76257812    5.30377255    1.06458144      24
Ni    -5.27921491   -1.76215618    1.05678532      25
Ni    -5.27187291    0.00002671   -0.70519128      26
Ni    -0.01127362    5.28167076   -0.70550830      27
Ni    -0.01126524   -5.28162769   -0.70550841      28
Ni     5.25820807    0.00001744   -0.70658324      29
Ni    -0.00155418   -5.30408716    2.83826217      30
Ni     5.37819402    0.00002113    2.91184522      31
Ni    -5.28206901    0.00002637    2.82292239      32
Ni    -0.00156034    5.30413729    2.83827128      33
Ni     1.76266681   -1.77042009    4.59777133      34
Ni    -1.77681516    1.78066471    4.60204652      35
Ni     1.76266395    1.77046971    4.59777360      36
Ni    -1.77681113   -1.78061124    4.60204342      37
Ni    -3.54650179    3.54453573    1.07279109      38
Ni     3.52898532   -3.56692151    1.10447226      39
Ni     3.52898046    3.56696030    1.10446799      40
Ni    -3.54649129   -3.54448123    1.07278524      41
Ni    -0.01165187    0.00002647    4.57573186      42
Ni     1.76264032   -3.52524620    2.81933717      43
Ni     3.52883530   -1.80983622    2.86028583      44
Ni    -1.77999267   -3.54654520    2.84082635      45
Ni     3.52883247    1.80988541    2.86028848      46
Ni    -3.54679776    1.77852079    2.83899275      47
Ni    -1.78000140    3.54659963    2.84083368      48
Ni    -3.54679214   -1.77846757    2.83898842      49
Ni     1.76263732    3.52529531    2.81934047      50
Ni    -0.00295433    1.80937983   -4.27142319      51
Ni    -1.85143021    0.00002497   -4.32328373      52
Ni     1.76272733    0.00002126   -4.26041480      53
Ni    -0.00295049   -1.80933533   -4.27142508      54
Ni    -0.00327060    3.56685415   -2.51588294      55
Ni    -3.51028794    0.00002688   -2.47274033      56
Ni     3.67872965    0.00001936   -2.74429567      57
Ni    -0.00326219   -3.56679685   -2.51587252      58
Ni    -0.15311521    0.00002410    1.33344091      59
Ni     0.71099168    0.00006190   -0.70029357      60
Ni    -3.51053548    1.76782107   -0.70499733      61
Ni    -1.85314856    3.61895627   -0.70527731      62
Ni    -3.51053299   -1.76776581   -0.70499671      63
Ni     1.76277297    3.55492453   -0.70568216      64
Ni     1.76277686   -3.55487727   -0.70568301      65
Ni     3.67737824   -2.03595058   -0.70546217      66
Ni    -1.85312005   -3.61888654   -0.70527650      67
Ni     3.67735710    2.03596423   -0.70545661      68
Ni    -1.73162985    0.00003060   -0.70454285      69
Ni    -0.15161604    2.03546066   -0.70639026      70
Ni    -0.15158552   -2.03536350   -0.70639489      71
Ni     2.81688723   -0.00000213   -0.70960605      72
Ni    -0.00384886   -1.81095439    2.86190419      73
Ni     1.76265298    0.00002558    2.84926522      74
Ni    -1.85491169    0.00002741    2.91479376      75
Ni    -0.00385369    1.81100626    2.86190487      76
Ni     3.67605520    0.00002853    1.32800545      77
Ni    -0.00369463   -3.56649200    1.10437698      78
Ni    -0.00370332    3.56655386    1.10438962      79
Ni    -3.51075438    0.00002800    1.06282389      80
Ni    -1.79215691    1.79416697   -2.49963293      81
Ni    -1.79215432   -1.79411611   -2.49962857      82
Ni     1.76357416    1.67571071   -2.38129075      83
Ni     1.76358085   -1.67566261   -2.38128981      84
Ni    -0.15015666    0.00001863   -2.73755688      85
Ni    -1.79223124    1.79461600    1.08909135      86
Ni     1.76251379   -1.67596867    0.97034463      87
Ni     1.76250386    1.67602188    0.97034677      88
Ni    -1.79222483   -1.79455761    1.08908573      89
