          89
Lattice="  21.1372   0.0000   0.0000   0.0000  21.1372   0.0000   0.0000   0.0000  21.1372 " ConfE="      -3844.7370" DelE="          0.0000"
Ni     0.00382804   -5.98218809    0.00006524       1
Ni    -3.54220759   -2.48956515    3.54623624       2
Ni     3.54975047   -2.48898287   -3.54578587       3
Ni    -3.54221489   -2.48957759   -3.54611209       4
Ni     3.54974583   -2.48897389    3.54591986       5
Ni    -3.54026827   -4.25671098    1.77822987       6
Ni    -1.77411829   -4.25651504    3.54416882       7
Ni    -3.54027190   -4.25671758   -1.77810259       8
Ni     1.78177330   -4.25619917    3.54399117       9
Ni     1.78178366   -4.25620778   -3.54386233      10
Ni     3.54763122   -4.25593915   -1.77766862      11
Ni    -1.77412089   -4.25652911   -3.54404713      12
Ni     3.54763031   -4.25593693    1.77780420      13
Ni     3.62490553    4.67149176    0.00008365      14
Ni     0.00460759    4.66962873   -3.61886070      15
Ni     0.00460098    4.66969960    3.61906973      16
Ni    -3.61330561    4.66789719    0.00007837      17
Ni    -1.76608064    1.05337168    5.30371619      18
Ni    -5.29940979    1.05336186    1.77021791      19
Ni     5.30777760    1.05373004    1.77052166      20
Ni    -1.76607116    1.05336308   -5.30357340      21
Ni     5.30777648    1.05372269   -1.77037007      22
Ni     1.77452046    1.05384864   -5.30364783      23
Ni     1.77452057    1.05385546    5.30379085      24
Ni    -5.29941174    1.05335372   -1.77007535      25
Ni    -5.27703757   -0.72087645    0.00006905      26
Ni     0.00409412   -0.72060929    5.28135767      27
Ni     0.00409971   -0.72061984   -5.28121227      28
Ni     5.28544519   -0.72026782    0.00007543      29
Ni     0.00442102    2.82769717   -5.28152652      30
Ni     5.28571075    2.82806499    0.00008290      31
Ni    -5.27747167    2.82712267    0.00007571      32
Ni     0.00441518    2.82771646    5.28166775      33
Ni     1.79900769    4.60864895   -1.79451865      34
Ni    -1.78967814    4.60862895    1.79420022      35
Ni     1.79902211    4.60865980    1.79469284      36
Ni    -1.78966600    4.60862790   -1.79403934      37
Ni    -3.52080840    1.05339277    3.52495131      38
Ni     3.52930752    1.05376112   -3.52517346      39
Ni     3.52931162    1.05376635    3.52532442      40
Ni    -3.52080503    1.05338276   -3.52480752      41
Ni     0.00544785    4.54827895    0.00009442      42
Ni     1.81433180    2.82010631   -3.56640649      43
Ni     3.57202146    2.82029281   -1.81097463      44
Ni    -1.80599340    2.81969232   -3.56678353      45
Ni     3.57201705    2.82030117    1.81112961      46
Ni    -3.56144136    2.81938134    1.80944600      47
Ni    -1.80602428    2.81971547    3.56696755      48
Ni    -3.56145326    2.81937451   -1.80930792      49
Ni     1.81436153    2.82012510    3.56659543      50
Ni     0.00374631   -4.22041456    1.76769867      51
Ni    -1.76392857   -4.22052113    0.00006331      52
Ni     1.77125828   -4.22037390    0.00006561      53
Ni     0.00375003   -4.22041739   -1.76757287      54
Ni     0.00379924   -2.56300312    3.61902650      55
Ni    -3.61582760   -2.56414553    0.00006292      56
Ni     3.62172470   -2.56168322    0.00006861      57
Ni     0.00380376   -2.56304699   -3.61892706      58
Ni     0.01010654    2.10596577    0.00017948      59
Ni     0.00000000    0.00000000    0.00000000      60
Ni    -3.56315129   -0.71312595    1.81089209      61
Ni    -1.80614593   -0.71290363    3.56673761      62
Ni    -3.56315442   -0.71313428   -1.81075969      63
Ni     1.81443401   -0.71253744    3.56695899      64
Ni     1.81445270   -0.71254908   -3.56683589      65
Ni     3.57017943   -0.71240473   -1.80967401      66
Ni    -1.80616469   -0.71291549   -3.56661814      67
Ni     3.57018448   -0.71239543    1.80982479      68
Ni    -2.03439092   -0.86242529    0.00006716      69
Ni     0.00453851   -0.86097822    2.03587980      70
Ni     0.00453193   -0.86103615   -2.03583070      71
Ni     2.03766716   -0.85948481    0.00008678      72
Ni     0.00344151    2.96801692   -2.03545763      73
Ni     2.04389896    2.96967143    0.00006785      74
Ni    -2.02755737    2.96651192    0.00005570      75
Ni     0.00344919    2.96809356    2.03574840      76
Ni     3.55928926    1.05370709    0.00007588      77
Ni     0.00422522    1.05364642   -3.55481159      78
Ni     0.00422246    1.05365254    3.55496108      79
Ni    -3.55045539    1.05368699    0.00006814      80
Ni    -1.79058244   -2.50191810    1.79460525      81
Ni    -1.79059180   -2.50193173   -1.79448591      82
Ni     1.79806816   -2.50165903    1.79421590      83
Ni     1.79807390   -2.50165766   -1.79407965      84
Ni     0.00331113   -2.44152920    0.00005634      85
Ni    -1.67121460    1.05296466    1.67565728      86
Ni     1.68032287    1.05407249   -1.67593159      87
Ni     1.68032861    1.05409808    1.67608736      88
Ni    -1.67120618    1.05294618   -1.67550071      89
          89
Lattice="  21.1372   0.0000   0.0000   0.0000  21.1372   0.0000   0.0000   0.0000  21.1372 " ConfE="      -3844.3785" DelE="          0.3585"
Ni    -0.01346247   -5.97400409    0.00003876       1
Ni    -3.55412418   -2.50556235    3.58266370       2
Ni     3.52946221   -2.47112818   -3.52715931       3
Ni    -3.55384122   -2.50526317   -3.58187855       4
Ni     3.52905482   -2.47091157    3.52690456       5
Ni    -3.55734402   -4.28860848    1.83030093       6
Ni    -1.76275751   -4.27024101    3.57328042       7
Ni    -3.55708834   -4.28865072   -1.83007516       8
Ni     1.76868859   -4.23210648    3.52702267       9
Ni     1.76891903   -4.23264465   -3.52729647      10
Ni     3.51621074   -4.21921181   -1.75478831      11
Ni    -1.76304219   -4.26943544   -3.57230261      12
Ni     3.51585244   -4.21881871    1.75466662      13
Ni     3.73833335    4.78786587    0.00011622      14
Ni     0.00871238    4.61710885   -3.57737214      15
Ni     0.00852905    4.61808147    3.57840937      16
Ni    -3.48848381    4.54783767   -0.00007488      17
Ni    -1.76480819    1.05865592    5.31077783      18
Ni    -5.26418709    1.04393208    1.76215222      19
Ni     5.27712604    1.06168171    1.76277673      20
Ni    -1.76500102    1.05892603   -5.31056888      21
Ni     5.27723093    1.06161802   -1.76259336      22
Ni     1.78527529    1.06045629   -5.31336922      23
Ni     1.78494802    1.06014643    5.31278790      24
Ni    -5.26384905    1.04356352   -1.76215243      25
Ni    -5.22795373   -0.74609180    0.00026526      26
Ni     0.00946047   -0.71561463    5.31069966      27
Ni     0.00965785   -0.71578966   -5.31049560      28
Ni     5.26757451   -0.68576815   -0.00001286      29
Ni     0.01105607    2.83493473   -5.31341563      30
Ni     5.26217942    2.83909100    0.00003423      31
Ni    -5.25086454    2.78699805   -0.00008354      32
Ni     0.01075940    2.83455329    5.31282897      33
Ni     1.80509428    4.63922646   -1.84502841      34
Ni    -1.74576175    4.56259476    1.76249128      35
Ni     1.80533074    4.63880217    1.84470747      36
Ni    -1.74528607    4.56219350   -1.76240235      37
Ni    -3.55147653    1.06263387    3.58352979      38
Ni     3.56639912    1.05809809   -3.57621092      39
Ni     3.56741460    1.05792113    3.57720015      40
Ni    -3.55306594    1.06245059   -3.58482035      41
Ni     0.05330638    4.51455965    0.00030145      42
Ni     1.80062306    2.85025227   -3.58680635      43
Ni     3.59047945    2.85438245   -1.84563656      44
Ni    -1.77097797    2.84704565   -3.58685491      45
Ni     3.59009566    2.85462477    1.84527048      46
Ni    -3.50273953    2.80152306    1.76168403      47
Ni    -1.77145320    2.84551382    3.58585108      48
Ni    -3.50360720    2.80241601   -1.76250167      49
Ni     1.80099146    2.85058070    3.58759802      50
Ni    -0.00450759   -4.21653683    1.76257097      51
Ni    -1.79533127   -4.17853705    0.00028362      52
Ni     1.73818917   -4.20288554   -0.00010431      53
Ni    -0.00491866   -4.21620888   -1.76256419      54
Ni     0.01402520   -2.50247658    3.58369442      55
Ni    -3.85326016   -2.80295519   -0.00037757      56
Ni     3.49716960   -2.43838621   -0.00011853      57
Ni     0.01373867   -2.50408061   -3.58498234      58
Ni     0.64797815    1.70380602    0.00423919      59
Ni    -0.83608185    0.21697863   -0.00626408      60
Ni    -3.57899810   -0.73273483    1.88307140      61
Ni    -1.77611478   -0.72710542    3.59289072      62
Ni    -3.57687297   -0.73301031   -1.88057424      63
Ni     1.79508788   -0.72120585    3.58441371      64
Ni     1.79650699   -0.72076121   -3.58543827      65
Ni     3.51147401   -0.69508914   -1.76183875      66
Ni    -1.77671267   -0.72765702   -3.59408531      67
Ni     3.51195365   -0.69556721    1.76187047      68
Ni    -2.32082965   -1.27889513    0.00371735      69
Ni     0.02031234   -0.73710552    1.91385234      70
Ni     0.02235625   -0.73952262   -1.91961226      71
Ni     1.67665475   -0.62418853   -0.00046152      72
Ni     0.01988670    2.87260775   -1.89701057      73
Ni     2.16614583    3.21315563   -0.00105933      74
Ni    -1.67617591    2.72854548   -0.00044673      75
Ni     0.01925970    2.87488675    1.90015296      76
Ni     3.46611769    1.10222042    0.00026247      77
Ni     0.01749519    1.06694530   -3.59510637      78
Ni     0.01689158    1.06630905    3.59414053      79
Ni    -3.43204754    0.98061885   -0.00053508      80
Ni    -1.78046830   -2.53250480    1.88550678      81
Ni    -1.78080474   -2.53041030   -1.88297517      82
Ni     1.75162879   -2.45330842    1.76142044      83
Ni     1.75245611   -2.45418056   -1.76228360      84
Ni    -0.06625664   -2.38531562   -0.00052693      85
Ni    -1.78622489    1.07154131    1.91544742      86
Ni     1.82109473    1.07118934   -1.89442400      87
Ni     1.82344865    1.07056489    1.89751084      88
Ni    -1.78861004    1.07369270   -1.92121826      89
          89
Lattice="  21.1372   0.0000   0.0000   0.0000  21.1372   0.0000   0.0000   0.0000  21.1372 " ConfE="      -3844.7370" DelE="         -0.0000"
Ni     0.00393965   -5.99012757    0.00007308       1
Ni    -3.53869797   -2.49316725    3.54634717       2
Ni     3.54657758   -2.49259757   -3.54636985       3
Ni    -3.53870246   -2.49317041   -3.54620790       4
Ni     3.54657342   -2.49259150    3.54651430       5
Ni    -3.53520709   -4.25392796    1.78029580       6
Ni    -1.76049377   -4.25082842    3.54437306       7
Ni    -3.53521235   -4.25393155   -1.78015755       8
Ni     1.76817009   -4.25063249    3.54452657       9
Ni     1.76816965   -4.25063465   -3.54437998      10
Ni     3.54333988   -4.25370464   -1.78038018      11
Ni    -1.76049718   -4.25083635   -3.54423428      12
Ni     3.54334037   -4.25370268    1.78053086      13
Ni     3.61982134    4.67197303    0.00007655      14
Ni     0.00416229    4.57848222   -3.52543270      15
Ni     0.00416606    4.57848751    3.52558470      16
Ni    -3.61200318    4.67205447    0.00007180      17
Ni    -1.77009992    1.05280780    5.28200004      18
Ni    -5.26927805    1.05287265    1.76785027      19
Ni     5.27746693    1.05345015    1.76778970      20
Ni    -1.77010028    1.05280750   -5.28186053      21
Ni     5.27746571    1.05344899   -1.76764651      22
Ni     1.77813573    1.05338538   -5.28176974      23
Ni     1.77813640    1.05338573    5.28192463      24
Ni    -5.26927891    1.05287242   -1.76770290      25
Ni    -5.26957558   -0.71471402    0.00007372      26
Ni     0.00385550   -0.71716189    5.30413051      27
Ni     0.00385159   -0.71716326   -5.30398251      28
Ni     5.27732294   -0.71406090    0.00007213      29
Ni     0.00411888    2.82340289   -5.30395718      30
Ni     5.27755936    2.82103540    0.00007130      31
Ni    -5.26908911    2.82046470    0.00007376      32
Ni     0.00412379    2.82340392    5.30410393      33
Ni     1.77027844    4.61967240   -1.81004171      34
Ni    -1.76216413    4.62002478    1.81063981      35
Ni     1.77028285    4.61968148    1.81020006      36
Ni    -1.76216324    4.62002688   -1.81049237      37
Ni    -3.61188892    1.05270365    3.61907233      38
Ni     3.61999813    1.05357623   -3.61889284      39
Ni     3.61997875    1.05357925    3.61902306      40
Ni    -3.61187085    1.05270247   -3.61891095      41
Ni     0.00424838    4.60807282    0.00007604      42
Ni     1.77027649    2.86383716   -3.56710660      43
Ni     3.55904699    2.84766372   -1.79424881      44
Ni    -1.76200358    2.86325472   -3.56691372      45
Ni     3.55905503    2.84766529    1.79439878      46
Ni    -3.55046795    2.84710832    1.79442551      47
Ni    -1.76200463    2.86327277    3.56707913      48
Ni    -3.55046963    2.84710471   -1.79427679      49
Ni     1.77027880    2.86382985    3.56724448      50
Ni     0.00391827   -4.25040120    1.77066140      51
Ni    -1.77010391   -4.22832631    0.00006944      52
Ni     1.77814043   -4.22806249    0.00007420      53
Ni     0.00391925   -4.25040351   -1.77051810      54
Ni     0.00393904   -2.47213587    3.52580062      55
Ni    -3.61196507   -2.56560513    0.00006761      56
Ni     3.62044339   -2.56578743    0.00007469      57
Ni     0.00393753   -2.47214168   -3.52565987      58
Ni     1.05694620    1.05198304    0.00003857      59
Ni    -1.04901441    1.05351726    0.00010870      60
Ni    -3.55075980   -0.74135595    1.79422667      61
Ni    -1.76229332   -0.75743633    3.56720327      62
Ni    -3.55077180   -0.74136264   -1.79408512      63
Ni     1.77012019   -0.75684013    3.56696968      64
Ni     1.77012383   -0.75685663   -3.56684068      65
Ni     3.55857801   -0.74072827   -1.79431160      66
Ni    -1.76229608   -0.75743188   -3.56704988      67
Ni     3.55858069   -0.74072340    1.79445667      68
Ni    -1.90967914   -0.98274923    0.00005681      69
Ni     0.00428800   -0.62323491    1.67644759      70
Ni     0.00429516   -0.62323591   -1.67630239      71
Ni     1.91840561   -0.98359908    0.00007851      72
Ni     0.00380971    2.72921875   -1.67609717      73
Ni     1.91809157    3.08826600    0.00008672      74
Ni    -1.91019800    3.08941402    0.00006856      75
Ni     0.00380396    2.72922130    1.67624781      76
Ni     3.49858261    1.05323181    0.00006906      77
Ni     0.00401359    1.05310992   -3.55541898      78
Ni     0.00402494    1.05311348    3.55556636      79
Ni    -3.49046323    1.05290221    0.00007693      80
Ni    -1.76215191   -2.51358883    1.81045425      81
Ni    -1.76215451   -2.51359756   -1.81032173      82
Ni     1.77030978   -2.51386109    1.81081787      83
Ni     1.77031300   -2.51386181   -1.81067309      84
Ni     0.00407234   -2.50207250    0.00006967      85
Ni    -1.90991244    1.05275763    2.03621815      86
Ni     1.91799445    1.05382984   -2.03603331      87
Ni     1.91798216    1.05383873    2.03613124      88
Ni    -1.90990061    1.05274484   -2.03602069      89
