          32
Lattice="   7.1928   0.0000   0.0000   0.0000   7.1928   0.0000   0.0000   0.0000   7.1928 " ConfE="       -142.6394" DelE="          0.0000"
Ni     1.76721969    1.76721969   -1.76721969       1
Ni     1.76721969   -3.21279377   -1.76721969       2
Ni    -3.21279377    1.76721969   -1.76721969       3
Ni     1.76721969    1.76721969    3.21279379       4
Ni     1.76721969   -0.44552928   -1.76721969       5
Ni    -0.44552928    1.76721969   -1.76721969       6
Ni     1.76721969    1.76721969    0.44552929       7
Ni    -3.58864502   -1.82916152    1.82916154       8
Ni    -1.82916152   -1.82916152    3.58864503       9
Ni    -1.82916152   -3.58864502    1.82916154      10
Ni     1.76721969   -1.82916152    3.51613308      11
Ni    -3.51613307   -1.82916152   -1.76721969      12
Ni    -1.82916152   -3.51613307   -1.76721969      13
Ni     1.76721969   -3.51613307    1.82916154      14
Ni    -1.82916152    1.76721969    3.51613308      15
Ni    -3.51613307    1.76721969    1.82916154      16
Ni    -0.06967803   -1.82916152    1.82916154      17
Ni    -1.82916152   -1.82916152    0.06967804      18
Ni    -1.82916152   -0.06967803    1.82916154      19
Ni     0.00000000    0.00000000    0.00000000      20
Ni     1.76721969   -1.82916152    0.14219000      21
Ni    -0.14218998   -1.82916152   -1.76721969      22
Ni    -1.82916152   -0.14218998   -1.76721969      23
Ni     1.76721969   -0.14218998    1.82916154      24
Ni    -1.82916152    1.76721969    0.14219000      25
Ni    -0.14218998    1.76721969    1.82916154      26
Ni     0.00000000    3.53443938    0.00000000      27
Ni     3.53443938    0.00000000    0.00000000      28
Ni     0.00000000   -0.00000000   -3.53443938      29
Ni     3.53443938    3.53443938   -0.00000000      30
Ni     0.00000000    3.53443938   -3.53443938      31
Ni     3.53443938    0.00000000   -3.53443938      32
          32
Lattice="   7.1928   0.0000   0.0000   0.0000   7.1928   0.0000   0.0000   0.0000   7.1928 " ConfE="       -140.3945" DelE="          2.2449"
Ni     1.53156243    2.32775533   -2.02947371       1
Ni     1.78247456   -2.60478565   -1.95351628       2
Ni    -3.47548973    1.70781312   -1.86056821       3
Ni     1.96028346    1.65763324    2.98053047       4
Ni     1.92865340   -0.13089031   -1.66360129       5
Ni    -0.01193780    1.18819076   -0.86793169       6
Ni     2.06160116    1.62307657    0.28877767       7
Ni    -3.44612939   -1.63080716    1.81305532       8
Ni    -1.68410860   -2.17283449   -3.51494464       9
Ni    -2.28649940    3.46110303    1.91349222      10
Ni     1.61660209   -1.54522113    3.19430102      11
Ni    -3.24443674   -1.81801055   -1.78706111      12
Ni    -1.42907721    3.35511851   -1.82365400      13
Ni     2.01413671   -3.52245499    1.75812983      14
Ni    -1.74255696    1.91565967   -3.58350207      15
Ni    -3.27816416    1.26547783    1.82050840      16
Ni    -0.20515549   -2.22537367    1.69724314      17
Ni    -1.88087842   -2.48003485    0.01717618      18
Ni    -1.50846648   -0.17454849    2.55450263      19
Ni    -1.14687726   -0.33607281    0.33518066      20
Ni     1.80881405   -1.65446247    0.22754684      21
Ni    -0.21958626   -1.57084120   -1.57371433      22
Ni    -1.81756661    0.07210184   -2.00536444      23
Ni     0.89083386    0.00864602    1.57291499      24
Ni    -2.02748569    2.00042856    0.00739106      25
Ni    -0.21845572    2.08700308    1.65628881      26
Ni     0.39714805    3.53999896   -0.19415635      27
Ni    -3.45716099   -0.13014890   -0.10619966      28
Ni     0.23698407    0.42680025   -3.21571233      29
Ni     3.26506534    3.56530648   -0.31443372      30
Ni     0.25315531    3.51551773    3.57650586      31
Ni     3.49963822   -0.13590563   -3.48525174      32
          32
Lattice="   7.1928   0.0000   0.0000   0.0000   7.1928   0.0000   0.0000   0.0000   7.1928 " ConfE="       -142.4135" DelE="          0.2259"
Ni     1.59409243    2.69258954   -1.87655674       1
Ni     2.16154946   -2.05444119   -1.87571329       2
Ni    -3.46989605    1.82279050   -1.87637290       3
Ni     2.50878979    1.38473030    3.15936970       4
Ni     1.80018625    0.27897383   -1.87580542       5
Ni     0.17825977    1.41314107   -0.47864346       6
Ni     2.50883556    1.38422742    0.28111741       7
Ni     3.19238449   -1.97620590    1.71984632       8
Ni    -1.89341510   -2.80073302    3.03122595       9
Ni    -3.24435163    2.83191920    1.72017349      10
Ni     1.47688044   -0.98934587    3.25735253      11
Ni    -2.49504064   -2.31471675   -1.87630286      12
Ni    -1.15358495    2.95125484   -1.87623660      13
Ni     1.61802367    3.18875644    1.71958189      14
Ni    -2.13336314    1.73421949    3.40621353      15
Ni    -3.03409423    0.23582142    1.72000058      16
Ni     0.06370740   -2.10430989    1.72012083      17
Ni    -1.89294725   -2.80048285    0.40890425      18
Ni    -1.08351158   -0.52237314    3.08569082      19
Ni    -1.08269526   -0.52185458    0.35436421      20
Ni     1.47728704   -0.98918093    0.18358966      21
Ni    -0.15607355   -1.48655556   -1.87654090      22
Ni    -1.56922619    0.36030465   -1.87596443      23
Ni     0.63724282    0.64477109    1.72052320      24
Ni    -2.13297487    1.73495040    0.03408646      25
Ni    -0.68971903    2.66426013    1.72060273      26
Ni     0.43948482   -3.24889271   -0.29679569      27
Ni    -3.42020557   -0.58277963   -0.54259434      28
Ni     0.17791416    1.41216223   -3.27289302      29
Ni     3.09107053   -3.46444619   -0.29187007      30
Ni     0.43935140   -3.24898917   -3.45605386      31
Ni    -3.42072249   -0.58284277   -3.20988593      32
