          18
Lattice="  24.8920   0.0000   0.0000   0.0000  24.8920   0.0000   0.0000   0.0000  24.8920 " ConfE="      -5926.3472" DelE="          0.0000"
Ni     0.02860479    0.04681777    3.55209861       1
Ni     0.01926538    3.61266576   -0.03114135       2
Ni     0.02221040   -0.00090986   -3.55722367       3
Cr     0.00968771   -3.51192102    0.10131373       4
Cr    -3.53167246    0.07905633   -0.01793852       5
Cr     3.57596754    0.01171768    0.03430335       6
Cr    -1.67992566    0.03899046    1.69609996       7
Co     1.76523926   -0.00068204    1.77188108       8
Co    -1.74648460   -1.75631492    0.02536521       9
Cr     1.68052961   -1.73300421    0.18871202      10
Cr     0.04299989    1.83666035    1.71854160      11
Cr    -1.76501246    0.05227499   -1.75378982      12
Cr     1.78768729    0.00241680   -1.72032710      13
Co    -1.74801697    1.80176479   -0.03612052      14
Co     1.82350447    1.77424846   -0.00180870      15
Cr     0.02876323   -1.74526956   -1.75904179      16
Co     0.07184370    1.78404500   -1.77488104      17
Co     0.00000000    0.00000000    0.00000000      18
          18
Lattice="  24.8920   0.0000   0.0000   0.0000  24.8920   0.0000   0.0000   0.0000  24.8920 " ConfE="      -5925.7360" DelE="          0.6112"
Ni     0.03391160    0.06117479    3.48555082       1
Ni     0.03416337    3.65005112   -0.03135942       2
Ni     0.02240755   -0.01154317   -3.54402797       3
Cr     0.01673744   -3.50763966    0.11660051       4
Cr    -3.61924958    0.12314916   -0.07973831       5
Cr     3.65203758    0.06296102   -0.00271071       6
Cr    -1.79254319    0.12680300    1.58550012       7
Co     1.93750419    0.04953220    1.78950435       8
Co    -1.96384450   -1.81168165   -0.05929023       9
Cr     2.00001290   -1.78710208    0.09098126      10
Cr     0.06059346    1.74690841    1.62170917      11
Cr    -1.59110803    0.04846126   -1.58822268      12
Cr     1.58838576    0.01622512   -1.55711498      13
Co    -1.72884855    1.81523645   -0.03760293      14
Co     1.82403254    1.76993226    0.01047740      15
Cr     0.00767929   -1.77908432   -1.69381469      16
Co     0.07142777    1.78197934   -1.73779156      17
Co     0.03714482   -0.91996235    0.75289947      18
          18
Lattice="  24.8920   0.0000   0.0000   0.0000  24.8920   0.0000   0.0000   0.0000  24.8920 " ConfE="      -5926.3841" DelE="         -0.0369"
Ni     0.02153760    0.04808436    3.56747953       1
Ni     0.02631335    3.63568476   -0.02843450       2
Ni     0.01316631   -0.00060737   -3.57482077       3
Cr     0.02300049   -3.57426741    0.04136251       4
Cr    -3.56923320    0.09091416   -0.03993834       5
Cr     3.61152945    0.03325796    0.01628723       6
Cr    -1.65196884    0.08777165    1.58040285       7
Co     1.76390462    0.01991106    1.71497112       8
Co    -1.76301970   -1.72765835   -0.03641082       9
Cr     1.77599698   -1.70859355    0.02494800      10
Cr     0.05288541    1.77251204    1.67732868      11
Cr    -1.65116251    0.06730574   -1.66370001      12
Cr     1.65594183    0.07545931   -1.66487048      13
Co    -1.71825823    1.78827739   -0.03641477      14
Co     1.80537741    1.76625600   -0.00757111      15
Cr     0.01912691   -1.72729713   -1.71090602      16
Co     0.06129702    1.77651850   -1.75617125      17
Co     0.00004262   -1.68642911    1.70262655      18
