          18
Lattice="  24.8920   0.0000   0.0000   0.0000  24.8920   0.0000   0.0000   0.0000  24.8920 " ConfE="      -5938.1172" DelE="          0.0000"
Ni    -0.01583847    0.01463634    3.55070973       1
Co     0.00179653   -3.53019661   -0.05811768       2
Co    -3.45198479   -0.08581239    0.05082300       3
Co     3.60305282   -0.04751147   -0.06200918       4
Co    -0.01131116    3.54886436    0.01609678       5
Cr    -0.00150357   -0.00772483   -3.49957949       6
Ni    -0.04901838   -1.73314329    1.71314605       7
Cr    -1.78958278    0.09654950    1.71415778       8
Ni     1.77978921    0.00383346    1.74559025       9
Co    -1.72825627   -0.02738859   -1.75310546      10
Cr    -0.05687271   -1.73887434   -1.70049721      11
Ni     0.02984377    1.76750531   -1.75337646      12
Co     1.83319874   -1.83314335   -0.05776539      13
Co    -0.03537103    1.80139638    1.77768013      14
Co    -1.76165113    1.82713682    0.01373804      15
Co     1.80668992    1.77550869   -0.02737802      16
Co     1.80377957   -0.04123706   -1.77157659      17
Ni     0.00000000    0.00000000    0.00000000      18
          18
Lattice="  24.8920   0.0000   0.0000   0.0000  24.8920   0.0000   0.0000   0.0000  24.8920 " ConfE="      -5937.4509" DelE="          0.6662"
Ni     0.02038479    0.02159506    3.61281577       1
Co     0.00063218   -3.53172043   -0.02934321       2
Co    -3.43353571   -0.07404478    0.03113146       3
Co     3.60891805   -0.06494552   -0.05873222       4
Co    -0.01867424    3.53967006    0.02269388       5
Cr     0.00473369    0.00625880   -3.55635532       6
Ni     0.03680455   -1.79215293    1.88008686       7
Cr    -1.79268862    0.15236851    1.95438042       8
Ni     1.75652663   -0.00921294    1.74247447       9
Co    -1.76880056    0.05946592   -1.97092679      10
Cr     0.02232843   -1.78152543   -1.84030706      11
Ni     0.02982284    1.73365767   -1.74152845      12
Co     1.77454144   -1.81704188   -0.04070286      13
Co    -0.04339126    1.73418519    1.74752495      14
Co    -1.74153313    1.77216099    0.00316621      15
Co     1.77488990    1.72235478   -0.03060893      16
Co     1.76107190   -0.06615213   -1.75064363      17
Ni    -0.79677992   -0.68357427    0.02910056      18
          18
Lattice="  24.8920   0.0000   0.0000   0.0000  24.8920   0.0000   0.0000   0.0000  24.8920 " ConfE="      -5938.1367" DelE="         -0.0196"
Ni    -0.00408687    0.02377359    3.56822587       1
Co     0.02858662   -3.58988238   -0.02895382       2
Co    -3.54864171   -0.02435930    0.02366565       3
Co     3.61668577   -0.05400852   -0.06162313       4
Co    -0.01392399    3.55524839    0.01544880       5
Cr     0.01755645    0.00894357   -3.55021134       6
Ni     0.00149768   -1.69494570    1.71168462       7
Cr    -1.71761224    0.17743232    1.68654056       8
Ni     1.75108207    0.01680725    1.70185887       9
Co    -1.70491537    0.00791815   -1.75558180      10
Cr     0.03303348   -1.66613516   -1.69048528      11
Ni     0.04108590    1.72649260   -1.71967895      12
Co     1.79140566   -1.82884235   -0.06000631      13
Co    -0.02753011    1.76316223    1.73965347      14
Co    -1.73925579    1.76157863    0.01575993      15
Co     1.80895616    1.76010461   -0.04021477      16
Co     1.76765308   -0.05468150   -1.73771335      17
Ni    -1.73623743   -1.71471174    0.00588860      18
