          18
Lattice="  24.8920   0.0000   0.0000   0.0000  24.8920   0.0000   0.0000   0.0000  24.8920 " ConfE="      -5938.0034" DelE="          0.0000"
Ni     3.50378489   -0.00171592   -0.05419484       1
Co     0.04894179   -3.48936733   -0.04818525       2
Co    -0.03409294    0.03732357   -3.62913314       3
Cr    -0.00139599    0.02920646    3.48201658       4
Cr    -3.55181841    0.03603446   -0.07641329       5
Co     0.00059270    3.59564485    0.00553716       6
Ni     0.00691096   -1.72873232   -1.79113708       7
Ni     1.75806523   -0.03609401   -1.77148786       8
Ni     1.75225201   -0.00597312    1.70914571       9
Ni    -1.78450914   -1.74634638   -0.05263856      10
Co    -0.01800122   -1.69394983    1.70627487      11
Ni     1.77177986    1.79849042   -0.02310898      12
Ni     0.00627373    1.76367136   -1.81436619      13
Ni    -1.76356559    1.80313811   -0.06155678      14
Co    -1.79847202    0.02737746   -1.81401990      15
Co    -0.00970919    1.79537553    1.75048318      16
Cr    -1.76970187    0.04253335    1.72522864      17
Cr     0.00000000    0.00000000    0.00000000      18
          18
Lattice="  24.8920   0.0000   0.0000   0.0000  24.8920   0.0000   0.0000   0.0000  24.8920 " ConfE="      -5937.0173" DelE="          0.9861"
Ni     3.44130352   -0.01789367   -0.04298793       1
Co     0.05752838   -3.47073149   -0.05063757       2
Co    -0.04540419    0.06345162   -3.71454347       3
Cr    -0.02413506    0.06090160    3.60570413       4
Cr    -3.53135973    0.02181189   -0.07629776       5
Co     0.00563893    3.59245145    0.00452207       6
Ni    -0.03503388   -1.73674852   -1.93604039       7
Ni     1.77853430   -0.00063602   -1.90447942       8
Ni     1.76837924    0.05447845    1.86229068       9
Ni    -1.68989408   -1.70754326   -0.05053605      10
Co    -0.04190738   -1.74643220    1.85818709      11
Ni     1.71038290    1.70764945   -0.02783684      12
Ni     0.00659494    1.72617275   -1.83440639      13
Ni    -1.70570410    1.74726858   -0.07603133      14
Co    -1.77358729    0.01783363   -1.82005646      15
Co    -0.01867315    1.73761006    1.74423334      16
Cr    -1.63742797    0.03815762    1.68584404      17
Cr     0.85014445   -0.91342170    0.01881779      18
          18
Lattice="  24.8920   0.0000   0.0000   0.0000  24.8920   0.0000   0.0000   0.0000  24.8920 " ConfE="      -5938.0584" DelE="         -0.0550"
Ni     3.51754331    0.00183610   -0.05240783       1
Co     0.03227544   -3.53362820   -0.04717431       2
Co    -0.04082263    0.04402516   -3.66988497       3
Cr    -0.00320443    0.04136754    3.54185930       4
Cr    -3.55213720    0.03095937   -0.07917544       5
Co    -0.00956444    3.61696320    0.00866145       6
Ni    -0.01430662   -1.70838557   -1.79888617       7
Ni     1.73301145   -0.02323535   -1.77105575       8
Ni     1.70865795    0.00221936    1.69872673       9
Ni    -1.73325722   -1.70626418   -0.05092330      10
Co    -0.03329201   -1.68300312    1.71797028      11
Ni     1.73130530    1.76210767   -0.03006804      12
Ni    -0.00703927    1.74893769   -1.82814324      13
Ni    -1.72906762    1.76087536   -0.07011588      14
Co    -1.80813824    0.03070108   -1.82827569      15
Co    -0.03092007    1.76000384    1.74408521      16
Cr    -1.70798971    0.05406071    1.71161635      17
Cr     1.74863180   -1.85491011   -0.01325547      18
