          18
Lattice="  24.8920   0.0000   0.0000   0.0000  24.8920   0.0000   0.0000   0.0000  24.8920 " ConfE="      -5935.0691" DelE="          0.0000"
Ni    -3.52703887    0.03981238   -0.05855936       1
Ni    -0.07868890    3.55715134   -0.05464646       2
Ni     3.54713359    0.04134548   -0.06678257       3
Ni     0.00843170   -3.54728913   -0.05537473       4
Cr    -0.07990582    0.03962562    3.48955194       5
Co     0.02598392    0.01332595   -3.63368528       6
Ni    -0.07223115    1.81458455    1.71000320       7
Ni    -0.02803408    1.81212630   -1.81346271       8
Ni    -1.77274769    0.06920987   -1.78095601       9
Co    -1.80895951    0.03146521    1.74433962      10
Ni     1.76168583    1.79658371   -0.06111514      11
Ni    -0.02496351   -1.76780803    1.73381608      12
Ni    -0.00979049   -1.71671852   -1.81998400      13
Cr    -1.81506268   -1.78506616   -0.06341137      14
Cr     1.72137122    0.04763060    1.73148130      15
Co     1.80842296   -0.00693271   -1.87283059      16
Cr     1.77551970   -1.70020740   -0.03169001      17
Co     0.00000000    0.00000000    0.00000000      18
          18
Lattice="  24.8920   0.0000   0.0000   0.0000  24.8920   0.0000   0.0000   0.0000  24.8920 " ConfE="      -5930.8340" DelE="          4.2351"
Ni    -3.62208104    0.04126281   -0.08244468       1
Ni    -0.07839169    3.50593537   -0.01499969       2
Ni     3.64315438    0.01629698   -0.11223135       3
Ni     0.03218826   -3.57524469   -0.07432717       4
Cr    -0.15402628    0.06956581    3.43852200       5
Co     0.03375828    0.00326843   -3.63577679       6
Ni     0.29909949    1.50301469    1.41774318       7
Ni    -0.00889665    1.77620087   -1.78800508       8
Ni    -1.75999281    0.07593301   -1.69534441       9
Co    -1.68501101    1.61913694    2.47961286      10
Ni     1.90852157    1.77255115   -0.18714266      11
Ni     0.05544644   -1.79911588    1.67614881      12
Ni    -0.00745474   -1.67190510   -1.75872521      13
Cr    -1.85598708   -1.91706988   -0.15453829      14
Cr     1.93732646   -0.10772984    1.68238286      15
Co     1.84025776   -0.03560314   -1.87228193      16
Cr     1.82340708   -1.69865456   -0.09537863      17
Co    -1.55653634   -0.17347429    1.11127652      18
          18
Lattice="  24.8920   0.0000   0.0000   0.0000  24.8920   0.0000   0.0000   0.0000  24.8920 " ConfE="      -5935.2832" DelE="         -0.2141"
Ni    -3.53987310    0.03558419   -0.06183939       1
Ni    -0.07801521    3.53441832   -0.04620914       2
Ni     3.55622894    0.04134323   -0.07047795       3
Ni     0.00886034   -3.53292011   -0.05678160       4
Cr    -0.07804400    0.06251129    3.48569629       5
Co     0.02946189    0.00688596   -3.63613954       6
Ni    -0.06526786    0.07526121   -0.03435052       7
Ni    -0.03195856    1.81771979   -1.82982781       8
Ni    -1.79929082    0.06350587   -1.80615228       9
Co    -0.04993883    1.79876924    1.75317655      10
Ni     1.76766874    1.79549816   -0.06507494      11
Ni    -0.02333345   -1.74076718    1.71424388      12
Ni    -0.01071630   -1.70840073   -1.81387888      13
Cr    -1.83897019   -1.78599262   -0.06606774      14
Cr     1.72992449    0.07023391    1.74313751      15
Co     1.81473249   -0.00550794   -1.87343761      16
Cr     1.79299217   -1.69581571   -0.02860138      17
Co    -1.81864501    0.04447707    1.75061501      18
