          18
Lattice="  24.8920   0.0000   0.0000   0.0000  24.8920   0.0000   0.0000   0.0000  24.8920 " ConfE="      -5932.3991" DelE="          0.0000"
Cr    -3.46295706    0.09685791   -0.03607877       1
Cr    -0.08854995    3.60380239    0.04047968       2
Cr     3.53122549    0.08666693    0.03679478       3
Cr    -0.00837963   -3.52293086    0.01008763       4
Cr     0.01542236    0.02856635   -3.57445109       5
Ni     0.04343873    0.05156257    3.52752310       6
Co    -1.73377201    0.01786295   -1.79949945       7
Cr    -1.76450732    0.05533073    1.72690979       8
Cr    -0.24526882    1.84898950   -1.57268946       9
Cr    -0.06646903    1.80063153    1.65745549      10
Cr    -1.79252092   -1.81329185    0.00230200      11
Co     1.77828051    1.86658879   -0.05225136      12
Ni     1.80933173   -1.76122906    0.00684513      13
Co     0.00369293   -1.74929216   -1.78174400      14
Co     0.01149218   -1.74387981    1.77899088      15
Cr     1.75778893    0.02696573   -1.76017745      16
Co     1.80657476    0.07723564    1.73343022      17
Ni     0.00000000    0.00000000    0.00000000      18
          18
Lattice="  24.8920   0.0000   0.0000   0.0000  24.8920   0.0000   0.0000   0.0000  24.8920 " ConfE="      -5931.4153" DelE="          0.9837"
Cr    -3.38196369    0.10351136   -0.06095254       1
Cr    -0.12666031    3.43638192    0.07065527       2
Cr     3.44741249    0.04439775    0.03265109       3
Cr     0.00030279   -3.47116096    0.01203700       4
Cr     0.02523479    0.03383809   -3.71362733       5
Ni     0.05702416    0.05151104    3.67730870       6
Co    -1.72530897   -0.00779045   -2.02079441       7
Cr    -1.77813168   -0.00801122    1.91896685       8
Cr    -0.00108263    1.86014769   -1.98030612       9
Cr     0.03627942    1.77799114    1.94934544      10
Cr    -1.67337847   -1.68967504   -0.04507923      11
Co     1.71622383    1.82081989   -0.03449860      12
Ni     1.05407825   -1.17011078   -0.03099493      13
Co    -0.07188533   -1.77698753   -2.01289419      14
Co    -0.07170605   -1.71097768    1.95246563      15
Cr     1.71803962    0.06544564   -1.88140457      16
Co     1.77079013    0.12076539    1.84335649      17
Ni    -0.76562042    0.81173997   -0.02261203      18
          18
Lattice="  24.8920   0.0000   0.0000   0.0000  24.8920   0.0000   0.0000   0.0000  24.8920 " ConfE="      -5932.5072" DelE="         -0.1081"
Cr    -3.51311417    0.04912049   -0.04054814       1
Cr    -0.01389336    3.61432179    0.02369432       2
Cr     3.50480993    0.06381810    0.08828444       3
Cr     0.03726990   -3.45470098    0.01365677       4
Cr     0.05044500   -0.03376666   -3.58583150       5
Ni     0.06584019    0.01976150    3.54214252       6
Co    -1.72568342    0.02133423   -1.83060897       7
Cr    -1.71339809    0.01029814    1.74691187       8
Cr     0.05539902    1.76652035   -1.84591535       9
Cr     0.01642995    1.78474724    1.77388425      10
Cr    -1.79553927   -1.76431723   -0.01827273      11
Co     1.77084658    1.89409299   -0.03757972      12
Ni     0.06114487    0.00161948   -0.02040853      13
Co     0.05054871   -1.73556212   -1.75698049      14
Co     0.05315991   -1.75085244    1.72766756      15
Cr     1.87395226   -0.09633119   -1.65613308      16
Co     1.82694605    0.03829278    1.71490981      17
Ni    -1.74283795    1.81586263   -0.03352388      18
