          18
Lattice="  24.8920   0.0000   0.0000   0.0000  24.8920   0.0000   0.0000   0.0000  24.8920 " ConfE="      -5925.3253" DelE="          0.0000"
Cr    -0.06406264    0.05144483   -3.41191387       1
Ni     3.47325639    0.02552161    0.12525497       2
Cr    -0.03164952   -0.03814217    3.71946844       3
Ni    -3.61787874    0.02077373    0.15622677       4
Co    -0.04902115   -3.51346358    0.14998513       5
Co    -0.01901962    3.56640295    0.19223852       6
Cr    -0.03350491   -1.68801985   -1.61918034       7
Cr     0.01945698    1.71803593   -1.53142785       8
Ni     1.71124906   -1.76109422    0.12140820       9
Co     1.68775071    1.77489420    0.12144676      10
Ni    -1.84958639    0.01184113   -1.66831674      11
Ni     1.71296245    0.01690343    1.93101723      12
Cr    -1.78419797    0.02738759    1.91003551      13
Ni    -1.82882172   -1.75087938    0.13627132      14
Ni    -1.82254707    1.78262785    0.14284017      15
Co    -0.07962364   -1.70504069    1.93065246      16
Cr    -0.02813169    1.72150086    1.85873049      17
Co     0.00000000    0.00000000    0.00000000      18
          18
Lattice="  24.8920   0.0000   0.0000   0.0000  24.8920   0.0000   0.0000   0.0000  24.8920 " ConfE="      -5924.9275" DelE="          0.3978"
Cr    -0.04323366    0.05087687   -3.37684777       1
Ni     3.44367920    0.02781427    0.11541906       2
Cr    -0.02029606   -0.04783678    3.73407765       3
Ni    -3.60381708    0.02086371    0.15361395       4
Co    -0.05595322   -3.55813439    0.15392418       5
Co    -0.03120227    3.61645368    0.18001473       6
Cr    -0.08383058   -1.88661487   -1.62815351       7
Cr    -0.06292943    1.94292744   -1.63880750       8
Ni     1.71688258   -1.84709021    0.16078618       9
Co     1.71528340    1.88510143    0.20468053      10
Ni    -1.78865510    0.00121732   -1.64281232      11
Ni     1.69252174    0.00745442    1.89153011      12
Cr    -1.71808194    0.01867671    1.86613161      13
Ni    -1.78900918   -1.74332509    0.13322262      14
Ni    -1.77967709    1.77542112    0.11797553      15
Co    -0.07857686   -1.71222307    1.93256171      16
Cr    -0.01504373    1.69746741    1.81530247      17
Co     0.58286952    0.04236166   -0.72536332      18
          18
Lattice="  24.8920   0.0000   0.0000   0.0000  24.8920   0.0000   0.0000   0.0000  24.8920 " ConfE="      -5925.3437" DelE="         -0.0183"
Cr    -0.08065309    0.04837269   -3.49555613       1
Ni     3.48621779    0.02250018    0.14631756       2
Cr    -0.03319814   -0.04014086    3.75336823       3
Ni    -3.61784328    0.02129324    0.16381639       4
Co    -0.05498763   -3.53394064    0.16085551       5
Co    -0.02644570    3.59276254    0.20609354       6
Cr    -0.05230890   -1.71649770   -1.60555757       7
Cr     0.01160144    1.74559893   -1.52357587       8
Ni     1.66076259   -1.74679786    0.14975197       9
Co     1.62998483    1.76598948    0.16472580      10
Ni    -1.77237169    0.01589461   -1.63443508      11
Ni     1.69149643    0.01743331    1.92173168      12
Cr    -1.77377414    0.02359563    1.92693132      13
Ni    -1.79419780   -1.72705370    0.14103909      14
Ni    -1.78450567    1.75833227    0.15005899      15
Co    -0.09762636   -1.67815949    1.93356567      16
Cr    -0.03796508    1.69812999    1.86277369      17
Co     1.58467060    0.02105037   -1.58536554      18
