          18
Lattice="  24.8920   0.0000   0.0000   0.0000  24.8920   0.0000   0.0000   0.0000  24.8920 " ConfE="      -5928.8162" DelE="          0.0000"
Co    -0.09939404   -0.01259079   -3.40410563       1
Cr     3.27760369    0.02989399   -0.06185987       2
Cr    -0.11320438   -0.01247444    3.67955554       3
Cr    -3.73986451    0.00194642    0.09098948       4
Cr    -0.16171524   -3.60239200    0.05048227       5
Ni    -0.15425035    3.57666062    0.07366395       6
Cr    -0.17019688   -1.76831012   -1.67286921       7
Ni    -0.14721470    1.77198855   -1.70457816       8
Ni     1.65239707   -1.80249608    0.02810994       9
Co     1.62023076    1.75275697    0.04058213      10
Co    -1.97500950   -0.01170719   -1.67118926      11
Cr     1.60594255   -0.01770145    1.88032853      12
Cr    -1.87761277   -0.02446171    1.85414280      13
Co    -1.91190421   -1.75835646    0.08326939      14
Cr    -1.89842976    1.73037785    0.08479167      15
Co    -0.11286145   -1.79297739    1.83200473      16
Co    -0.14446297    1.79734221    1.84989580      17
Cr     0.00000000    0.00000000    0.00000000      18
          18
Lattice="  24.8920   0.0000   0.0000   0.0000  24.8920   0.0000   0.0000   0.0000  24.8920 " ConfE="      -5928.0904" DelE="          0.7258"
Co    -0.11379827    0.01196685   -3.40687535       1
Cr     3.34268799    0.00573417    0.07085664       2
Cr    -0.09586636   -0.01545519    3.67132212       3
Cr    -3.68990909    0.01218431    0.08507754       4
Cr    -0.16347306   -3.67030713    0.06249660       5
Ni    -0.16869263    3.64018061    0.07886382       6
Cr    -0.21045852   -1.88421844   -1.67749529       7
Ni    -0.22328850    1.96120368   -1.75757651       8
Ni     1.65766657   -1.88099832    0.07844557       9
Co     1.61116605    1.86942322    0.08876129      10
Co    -1.89563228    0.00334147   -1.65456058      11
Cr     1.49880318   -0.00480654    1.81879419      12
Cr    -1.67547754   -0.02082097    1.73768998      13
Co    -1.85919455   -1.75301161    0.06050320      14
Cr    -1.80998548    1.68713176    0.05543891      15
Co    -0.09536820   -1.79449745    1.79728455      16
Co    -0.13012238    1.81192128    1.81809798      17
Cr     0.66621752    0.05801370   -0.85695287      18
          18
Lattice="  24.8920   0.0000   0.0000   0.0000  24.8920   0.0000   0.0000   0.0000  24.8920 " ConfE="      -5928.4113" DelE="          0.4050"
Co    -0.14335698   -0.00234644   -3.46543215       1
Cr     3.39572858    0.00196412    0.08167887       2
Cr    -0.11194052   -0.01160935    3.67033237       3
Cr    -3.71472260    0.01047099    0.09579360       4
Cr    -0.17583325   -3.63379550    0.05392731       5
Ni    -0.16453770    3.61519169    0.07422111       6
Cr    -0.22412583   -1.77774938   -1.63196646       7
Ni    -0.18702032    1.78750149   -1.67941547       8
Ni     1.61273396   -1.80938661    0.07734535       9
Co     1.58087944    1.75331684    0.07227123      10
Co    -1.91007823   -0.01139673   -1.63048083      11
Cr     1.45965377    0.02472813    1.74815144      12
Cr    -1.70581792    0.00211582    1.74352787      13
Co    -1.90741454   -1.76799442    0.08449395      14
Cr    -1.89627974    1.73928864    0.07709016      15
Co    -0.13610640   -1.79676701    1.81770205      16
Co    -0.15840834    1.82520362    1.83694737      17
Cr     1.46238906    0.00190959   -1.51230261      18
