          18
Lattice="  24.8920   0.0000   0.0000   0.0000  24.8920   0.0000   0.0000   0.0000  24.8920 " ConfE="      -5948.4780" DelE="          0.0000"
Ni    -0.00674841   -3.45157875    0.01139443       1
Cr     3.46321739    0.00959129    0.01970808       2
Co    -0.01216210    3.68964839    0.00577649       3
Ni    -3.58238890    0.10941673   -0.00125180       4
Co    -0.02373178    0.09052045   -3.51692138       5
Cr    -0.02720537    0.03891518    3.53988462       6
Cr     0.02583286   -1.66136065   -1.69593677       7
Co    -0.09530170   -1.70269041    1.76818120       8
Co     1.74255256    0.01782656   -1.72163509       9
Ni     1.72674734    0.04757702    1.75179064      10
Cr    -1.83363542   -1.69254464   -0.01310779      11
Co     1.72259125    1.87055543   -0.03037613      12
Ni    -1.77321548    1.87764124    0.01402923      13
Ni    -1.78783871    0.10298778   -1.76958270      14
Co    -1.81485689    0.03997795    1.78251821      15
Cr    -0.00837888    1.87340740   -1.73413188      16
Ni    -0.03543925    1.85465070    1.76653181      17
Co     0.00000000    0.00000000    0.00000000      18
          18
Lattice="  24.8920   0.0000   0.0000   0.0000  24.8920   0.0000   0.0000   0.0000  24.8920 " ConfE="      -5947.9635" DelE="          0.5145"
Ni    -0.01068953   -3.44519261    0.02334748       1
Cr     3.39097771   -0.00328457    0.01455123       2
Co     0.00025256    3.68473071    0.01188730       3
Ni    -3.57191965    0.10510262   -0.00627447       4
Co    -0.05124121    0.10077837   -3.59602753       5
Cr    -0.04992211    0.07432138    3.63028191       6
Cr    -0.07015129   -1.72425143   -1.88841980       7
Co    -0.13750763   -1.71078134    1.90568923       8
Co     1.74962003    0.13078968   -1.93923302       9
Ni     1.71481943    0.08384952    1.87919759      10
Cr    -1.71682102   -1.63006915    0.00446879      11
Co     1.66047163    1.75490369   -0.05035460      12
Ni    -1.72499008    1.84523388    0.01061852      13
Ni    -1.72025421    0.10776988   -1.75226062      14
Co    -1.78962622    0.03609860    1.76976790      15
Cr     0.01180374    1.87400290   -1.74213480      16
Ni    -0.03519443    1.82800838    1.77562740      17
Co     0.85358258   -0.90630401   -0.08426196      18
          18
Lattice="  24.8920   0.0000   0.0000   0.0000  24.8920   0.0000   0.0000   0.0000  24.8920 " ConfE="      -5948.4175" DelE="          0.0605"
Ni    -0.03929714   -3.51868664    0.02509197       1
Cr     3.49255627    0.04538900    0.00734201       2
Co    -0.00771135    3.70752414    0.01052164       3
Ni    -3.58150432    0.10627661   -0.00327707       4
Co    -0.02995613    0.09323720   -3.54696839       5
Cr    -0.03395419    0.05728826    3.57556919       6
Cr     0.01187212   -1.65279584   -1.68185917       7
Co    -0.11775755   -1.65585179    1.72393520       8
Co     1.69616456    0.06492317   -1.74371262       9
Ni     1.69089323    0.08273306    1.74127053      10
Cr    -1.75282367   -1.66073390    0.01812146      11
Co     1.68590999    1.83606544   -0.04716271      12
Ni    -1.74379795    1.86749013    0.01079614      13
Ni    -1.72166540    0.10011670   -1.72435684      14
Co    -1.80668824    0.04961768    1.77019133      15
Cr     0.00559778    1.88608972   -1.72555484      16
Ni    -0.04015230    1.84754870    1.75707419      17
Co     1.67226560   -1.67790139   -0.00613121      18
