          18
Lattice="  24.8920   0.0000   0.0000   0.0000  24.8920   0.0000   0.0000   0.0000  24.8920 " ConfE="      -5943.0823" DelE="          0.0000"
Co     0.04949279    0.06598154    3.49896342       1
Co     0.03950958   -3.45182801   -0.09192141       2
Ni     0.03011759    0.06155185   -3.61826959       3
Ni     0.05377599    3.62032100   -0.09767194       4
Co    -3.51832247    0.05876995   -0.07410517       5
Co     3.63463518    0.07370870   -0.05287059       6
Co    -1.69550314    0.00923148    1.65714427       7
Ni     1.78046488    0.05251305    1.71975529       8
Cr    -1.65143810   -1.73559384    0.04905388       9
Ni     1.76177269   -1.69108682   -0.03798287      10
Ni     0.03816628    1.85411648    1.69937639      11
Co     0.00201857   -1.74609760   -1.86626571      12
Co     0.03707637    1.84436512   -1.85259307      13
Ni    -1.72744240    1.83349018   -0.07471896      14
Ni     1.80443494    1.85102113   -0.10217746      15
Ni    -1.71787636    0.04350546   -1.83158694      16
Ni     1.79451952    0.04557434   -1.81810243      17
Cr     0.00000000    0.00000000    0.00000000      18
          18
Lattice="  24.8920   0.0000   0.0000   0.0000  24.8920   0.0000   0.0000   0.0000  24.8920 " ConfE="      -5942.4129" DelE="          0.6694"
Co     0.04949518    0.03858165    3.42930221       1
Co     0.05039680   -3.40653477   -0.06401631       2
Ni     0.03938846    0.05110696   -3.61633197       3
Ni     0.06285289    3.62592523   -0.09522359       4
Co    -3.55162161    0.07049040   -0.08331853       5
Co     3.70487103    0.08710318   -0.06068583       6
Co    -1.89133804    0.11299971    1.75119080       7
Ni     1.88891828    0.09545397    1.69911261       8
Cr    -1.83523383   -1.79083541   -0.02294377       9
Ni     1.87843325   -1.70254916   -0.08139551      10
Ni     0.04875923    1.79997154    1.66983424      11
Co     0.01931760   -1.73575362   -1.80625507      12
Co     0.05214599    1.82369869   -1.83380979      13
Ni    -1.68390405    1.78171910   -0.06288496      14
Ni     1.82097367    1.85317332   -0.11317410      15
Ni    -1.65644424    0.01421693   -1.76454023      16
Ni     1.79537196    0.04522336   -1.79232937      17
Cr    -0.08892045   -0.66284550    0.67914417      18
          18
Lattice="  24.8920   0.0000   0.0000   0.0000  24.8920   0.0000   0.0000   0.0000  24.8920 " ConfE="      -5943.2474" DelE="         -0.1651"
Co     0.03540754    0.07620737    3.52149986       1
Co     0.04650016   -3.50646093   -0.10830406       2
Ni     0.03164663    0.06632371   -3.63554906       3
Ni     0.05393026    3.63606071   -0.10376326       4
Co    -3.54999356    0.08138987   -0.08199530       5
Co     3.65531107    0.08501567   -0.06057801       6
Co    -1.71011065    0.02729163    1.63853284       7
Ni     1.77607722    0.08131568    1.68740509       8
Cr    -1.70810493   -1.68957774   -0.04088420       9
Ni     1.74766338   -1.65400420   -0.07002099      10
Ni     0.03337919    1.81584129    1.67163462      11
Co    -0.01665764   -1.73050911   -1.81569227      12
Co     0.04608881    1.87119699   -1.87914835      13
Ni    -1.70119271    1.81311544   -0.09429762      14
Ni     1.80403952    1.87434417   -0.12774785      15
Ni    -1.68815491    0.06231211   -1.82402233      16
Ni     1.77578580    0.06718096   -1.81880560      17
Cr    -0.03389980   -1.64391858    1.64823971      18
