          23
Lattice="  24.8920   0.0000   0.0000   0.0000  24.8920   0.0000   0.0000   0.0000  24.8920 " ConfE="      -5945.1317" DelE="          0.0000"
Ni     2.46960672   -2.50307153   -0.05429193       1
Ni    -2.70176005    2.71290908   -0.01444511       2
Ni    -2.72049735    0.95843400    1.74773013       3
Ni     0.76284104   -0.83166570    3.57592469       4
Ni     0.76532037   -2.55824057   -1.83182963       5
Cr    -0.99789096    1.00472464   -3.65927882       6
Cr    -0.95161707    2.63590529   -1.77903337       7
Co    -2.71049209    0.96012322   -1.76691753       8
Ni    -0.94064671   -2.51671352   -0.01396360       9
Co     2.52517948   -0.74001196   -1.82202274      10
Co    -0.89607173    2.68706023    1.73422454      11
Co     2.52693985   -0.80895609    1.74165428      12
Co     0.81230390   -2.57696783    1.78200529      13
Co     0.77224644   -0.76273435   -3.64539908      14
Co    -1.00523251    0.98138319    3.57584764      15
Cr     2.49731709    0.85988142   -0.05207793      16
Cr     0.72981312    2.58012370    0.00981942      17
Cr    -2.66146852   -0.70880248   -0.01016971      18
Ni     0.00000000    0.00000000    0.00000000      19
Ni    -1.03581386   -0.82537674   -1.94224709      20
Co     0.78619792    1.02389514   -1.98937691      21
Cr     0.84585055    0.94872509    1.92755750      22
Co    -1.07409147   -0.84258857    1.91220013      23
          23
Lattice="  24.8920   0.0000   0.0000   0.0000  24.8920   0.0000   0.0000   0.0000  24.8920 " ConfE="      -5945.1138" DelE="          0.0179"
Ni     2.48834200   -2.51739026   -0.05567174       1
Ni    -2.70106662    2.70301446   -0.01199605       2
Ni    -2.74266994    0.95531489    1.75911878       3
Ni     0.76283626   -0.83579598    3.57932570       4
Ni     0.77484537   -2.53828261   -1.81565786       5
Cr    -0.98191375    1.00591983   -3.64190405       6
Cr    -0.94238173    2.62548589   -1.75959332       7
Co    -2.71912137    0.95956129   -1.77301970       8
Ni    -0.93892392   -2.50831216   -0.01718690       9
Co     2.53585206   -0.73922319   -1.81980429      10
Co    -0.89699335    2.68377376    1.72982043      11
Co     2.51440426   -0.80868705    1.72552450      12
Co     0.81512637   -2.57577636    1.77521716      13
Co     0.78024861   -0.76400130   -3.64937431      14
Co    -1.00348766    0.97612981    3.56338042      15
Cr     2.47416163    0.85231258   -0.05550213      16
Cr     0.76881975    2.64182885    0.01385381      17
Cr    -2.68378457   -0.70889261   -0.01110889      18
Ni    -0.17510776    0.25539070   -0.02411055      19
Ni    -1.02140623   -0.82438969   -1.93191390      20
Co     0.82591722    1.02616453   -2.01214863      21
Cr     0.86992471    0.92996313    1.91906993      22
Co    -1.05191109   -0.83894092    1.88125504      23
          23
Lattice="  24.8920   0.0000   0.0000   0.0000  24.8920   0.0000   0.0000   0.0000  24.8920 " ConfE="      -5945.5405" DelE="         -0.4087"
Ni     2.50306278   -2.54253651   -0.04774096       1
Ni    -2.74392381    2.74764056   -0.01937143       2
Ni    -2.75172501    0.94785810    1.75579260       3
Ni     0.75497193   -0.82771678    3.53808202       4
Ni     0.77559653   -2.56088413   -1.78366279       5
Cr    -0.92834671    0.97114868   -3.54222642       6
Cr    -0.94496739    2.70547644   -1.80499094       7
Co    -2.75999059    0.96524783   -1.80366009       8
Ni    -0.95975938   -2.58197868   -0.00517246       9
Co     2.55902952   -0.75963952   -1.80006962      10
Co    -0.92575984    2.72814806    1.75702428      11
Co     2.53302285   -0.82965924    1.71980906      12
Co     0.82094079   -2.60576068    1.76497732      13
Co     0.77192536   -0.74377571   -3.59155663      14
Co    -1.00315620    0.95997995    3.52039034      15
Cr     2.51563298    0.87178521   -0.03675724      16
Cr     0.80400611    2.72345743    0.04656831      17
Cr    -2.78233457   -0.79524171    0.00566113      18
Ni    -0.96586638    0.92251309   -0.01472593      19
Ni    -0.99566008   -0.81325914   -1.77562297      20
Co     0.79145345    0.95965200   -1.72896674      21
Cr     0.81724699    0.84493764    1.72192046      22
Co    -0.97921043   -0.82623301    1.73547738      23
