          18
Lattice="  24.8920   0.0000   0.0000   0.0000  24.8920   0.0000   0.0000   0.0000  24.8920 " ConfE="      -5943.2332" DelE="          0.0000"
Co     3.57135434    0.06361516    0.02559299       1
Ni    -0.00028546    0.02643047    3.54924312       2
Cr     0.01188451   -3.45521070   -0.01682314       3
Cr    -0.02882100    0.01845637   -3.53847182       4
Cr    -0.02664915    3.60803640    0.03425585       5
Co    -3.58700330    0.05021097    0.02056915       6
Ni     1.77685170    0.00269628    1.75032578       7
Ni     1.77537273    0.03631880   -1.72794835       8
Co     0.02819630   -1.77018852    1.74882640       9
Ni    -0.01373124    1.80637388    1.78332787      10
Co    -0.01080724   -1.75843919   -1.75775327      11
Ni    -0.03040013    1.81313267   -1.75311502      12
Ni    -1.79866702    1.80608216    0.03082087      13
Co     1.76757565    1.88427440   -0.01887545      14
Cr    -1.79631288   -0.02537602    1.78372784      15
Co    -1.83525271   -1.76664826   -0.00711552      16
Cr    -1.80699103   -0.00073708   -1.79163541      17
Ni     0.00000000    0.00000000    0.00000000      18
          18
Lattice="  24.8920   0.0000   0.0000   0.0000  24.8920   0.0000   0.0000   0.0000  24.8920 " ConfE="      -5942.6077" DelE="          0.6254"
Co     3.53553988    0.05096397    0.02489998       1
Ni    -0.01043445    0.05333910    3.63640550       2
Cr    -0.00430058   -3.41242774   -0.00704340       3
Cr    -0.03300137    0.05582695   -3.61198290       4
Cr    -0.01675503    3.59773036    0.03623310       5
Co    -3.59402969    0.03731650    0.01652578       6
Ni     1.78771442    0.03218692    1.87065212       7
Ni     1.80971787    0.08184832   -1.86226681       8
Co    -0.10233519   -1.74964568    1.95893127       9
Ni    -0.00459271    1.75710184    1.78112399      10
Co    -0.11403942   -1.79682725   -2.00080261      11
Ni    -0.01648651    1.77072581   -1.74838006      12
Ni    -1.74075657    1.73695494    0.02850917      13
Co     1.75366118    1.82124933   -0.02189928      14
Cr    -1.75621086   -0.03224675    1.76742357      15
Co    -1.76068471   -1.72396467   -0.02875176      16
Cr    -1.76968426   -0.00584132   -1.78711082      17
Ni     0.76768328   -0.92910948   -0.03079691      18
          18
Lattice="  24.8920   0.0000   0.0000   0.0000  24.8920   0.0000   0.0000   0.0000  24.8920 " ConfE="      -5943.3035" DelE="         -0.0703"
Co     3.59608002    0.07016635    0.03608107       1
Ni    -0.00716696    0.04175356    3.57646692       2
Cr    -0.05464236   -3.50849084   -0.01611995       3
Cr    -0.03751927    0.03171691   -3.57669184       4
Cr    -0.02923106    3.61868076    0.03346410       5
Co    -3.61462212    0.04875985    0.01713413       6
Ni     1.75619989    0.03124483    1.75977150       7
Ni     1.74359253    0.05269721   -1.71810709       8
Co    -0.04800774   -1.70042762    1.76716586       9
Ni    -0.02008460    1.77785679    1.75953482      10
Co    -0.04831785   -1.70674140   -1.76174846      11
Ni    -0.03227021    1.77455239   -1.72852178      12
Ni    -1.77533650    1.76569997    0.02893138      13
Co     1.76184640    1.85814289   -0.01691256      14
Cr    -1.78157834   -0.02356643    1.74996176      15
Co    -1.78748422   -1.71662537   -0.01012234      16
Cr    -1.78927203   -0.00286782   -1.76612670      17
Ni     1.71748033   -1.72801470    0.02754340      18
