          18
Lattice="  24.8920   0.0000   0.0000   0.0000  24.8920   0.0000   0.0000   0.0000  24.8920 " ConfE="      -5929.5291" DelE="          0.0000"
Ni     0.01360987    0.01554822    3.48318731       1
Co    -3.48278489   -0.03512200    0.00870680       2
Cr    -0.00277726    3.55682526   -0.05279653       3
Cr    -0.05150802   -3.49744171    0.02723254       4
Co     3.58659962   -0.01872310   -0.00632006       5
Cr    -0.00904495   -0.05012263   -3.53324283       6
Ni    -1.77177625    1.74861024    0.04332236       7
Ni    -0.00301068    1.77507805    1.75379600       8
Co    -1.76286185   -1.76305090    0.02247392       9
Co     0.00667298   -1.77126606    1.75424864      10
Ni     1.79858432   -1.76507473    0.02663685      11
Cr    -1.75296909   -0.05297325   -1.72633740      12
Co     1.83171969    0.04930268    1.78480749      13
Cr     0.04268282    1.69666465   -1.76735466      14
Cr     1.81904401    1.75736240   -0.04418423      15
Co     0.03361821   -1.76465151   -1.77240103      16
Co     1.81204656   -0.05541372   -1.80707012      17
Co     0.00000000    0.00000000    0.00000000      18
          18
Lattice="  24.8920   0.0000   0.0000   0.0000  24.8920   0.0000   0.0000   0.0000  24.8920 " ConfE="      -5928.6581" DelE="          0.8710"
Ni     0.00899391    0.03283594    3.45537914       1
Co    -3.44246565   -0.02603600   -0.01336648       2
Cr     0.00699255    3.65547414   -0.06663460       3
Cr     0.01034194   -3.60685801   -0.00062388       4
Co     3.57842004   -0.02978974   -0.00134463       5
Cr    -0.04013031   -0.05532789   -3.54707253       6
Ni    -1.77497443    1.91773250   -0.02693747       7
Ni     0.03850602    1.92304809    1.77052790       8
Co    -1.77167888   -1.95552261   -0.06360789       9
Co     0.06016248   -1.92591583    1.77030261      10
Ni     1.75550404   -1.76594463    0.02001486      11
Cr    -1.64608085   -0.07241130   -1.58657228      12
Co     1.70706509    0.04764905    1.70062012      13
Cr     0.03622314    1.66480334   -1.71270478      14
Cr     1.76592945    1.71892305   -0.01616848      15
Co     0.02616267   -1.75512361   -1.74509340      16
Co     1.76093293   -0.04583493   -1.77427796      17
Co    -1.02022123   -0.04173036    0.99807009      18
          18
Lattice="  24.8920   0.0000   0.0000   0.0000  24.8920   0.0000   0.0000   0.0000  24.8920 " ConfE="      -5929.4444" DelE="          0.0847"
Ni     0.03605540    0.01614392    3.52100005       1
Co    -3.51908624   -0.03203633   -0.04627723       2
Cr     0.00483008    3.59631944   -0.05552075       3
Cr    -0.02794110   -3.55146079    0.01121105       4
Co     3.59171718   -0.02381624   -0.01053447       5
Cr    -0.06769252   -0.05179755   -3.56836957       6
Ni    -1.73531174    1.75871696   -0.00181096       7
Ni     0.01965756    1.76464160    1.71565183       8
Co    -1.73764438   -1.77625335   -0.01380489       9
Co     0.01063166   -1.76481650    1.74146744      10
Ni     1.75594718   -1.73852443    0.02228084      11
Cr    -1.67991066   -0.07680133   -1.64401826      12
Co     1.79543833    0.05433094    1.75397980      13
Cr     0.05465899    1.65797960   -1.74525955      14
Cr     1.80274849    1.73438622   -0.03954717      15
Co     0.02483952   -1.73329399   -1.75285701      16
Co     1.75936677   -0.03224705   -1.78322318      17
Co    -1.75937248   -0.01403329    1.72474264      18
