          18
Lattice="  24.8920   0.0000   0.0000   0.0000  24.8920   0.0000   0.0000   0.0000  24.8920 " ConfE="      -5924.0520" DelE="          0.0000"
Co     3.49070896    0.02844602    0.00269453       1
Ni     0.02176350    3.46727355   -0.00241843       2
Ni    -3.54778603   -0.01343763    0.00149447       3
Cr     0.06715562   -3.57486983    0.00556214       4
Co     0.03752638   -0.03587181   -3.57535469       5
Ni     0.01394661   -0.01340944    3.57013130       6
Co     1.74630592    0.02344470   -1.75953591       7
Ni     1.76266691    0.01585728    1.76429078       8
Cr     0.08659818    1.72229165   -1.75697370       9
Ni     0.00634054    1.75323219    1.74020686      10
Cr     1.76619944   -1.79634171   -0.05862843      11
Ni    -1.80337482    1.72563746    0.01214915      12
Ni    -1.74392278   -1.82405481    0.00953455      13
Co    -0.00122975   -1.79232537   -1.78974303      14
Cr     0.03364598   -1.77529167    1.79234526      15
Ni    -1.77964348   -0.00457575   -1.78700346      16
Co    -1.76637018   -0.10698483    1.80982235      17
Ni     0.00000000    0.00000000    0.00000000      18
          18
Lattice="  24.8920   0.0000   0.0000   0.0000  24.8920   0.0000   0.0000   0.0000  24.8920 " ConfE="      -5923.4844" DelE="          0.5676"
Co     3.47797873    0.02314346   -0.00964438       1
Ni     0.02881050    3.44181096    0.01003782       2
Ni    -3.52874602   -0.00401984   -0.00218087       3
Cr     0.10383245   -3.56249391    0.00347363       4
Co     0.02186857   -0.05288372   -3.62283247       5
Ni     0.00315754   -0.02001120    3.64360110       6
Co     1.83103231   -0.04694272   -1.94348975       7
Ni     1.77384020   -0.02739056    1.91585397       8
Cr    -0.00458882    1.72307765   -1.93013861       9
Ni    -0.06588306    1.76957662    1.91035996      10
Cr     1.68403818   -1.66311628   -0.06328680      11
Ni    -1.67158396    1.65559067    0.01079827      12
Ni    -1.71253866   -1.79330709    0.00487551      13
Co     0.02400630   -1.72728178   -1.74574321      14
Cr     0.01141200   -1.68078487    1.73732096      15
Ni    -1.75024151   -0.00370560   -1.78871914      16
Co    -1.70767995   -0.11147437    1.80124449      17
Ni     1.00367064    1.02193438   -0.02605066      18
          18
Lattice="  24.8920   0.0000   0.0000   0.0000  24.8920   0.0000   0.0000   0.0000  24.8920 " ConfE="      -5924.0711" DelE="         -0.0191"
Co     3.53808829   -0.01387343   -0.00698936       1
Ni    -0.01232458    3.51099299   -0.00137250       2
Ni    -3.55244922   -0.01827123   -0.00004519       3
Cr     0.08585919   -3.59206212    0.00908433       4
Co     0.03108384   -0.05246346   -3.60293868       5
Ni     0.01627589   -0.01332382    3.59415858       6
Co     1.71619607   -0.02412028   -1.74436489       7
Ni     1.73929341   -0.01001640    1.76294129       8
Cr     0.02897069    1.65552859   -1.76458300       9
Ni    -0.02333966    1.72417252    1.74293075      10
Cr     1.70471574   -1.73955006   -0.05501607      11
Ni    -1.73483165    1.66851585   -0.00020003      12
Ni    -1.71700120   -1.80848261    0.01019153      13
Co     0.00741309   -1.76462140   -1.74236973      14
Cr     0.00894813   -1.72888204    1.75507375      15
Ni    -1.75714393   -0.01906078   -1.77491608      16
Co    -1.72538146   -0.12746114    1.79588594      17
Ni     1.72570538    1.72574703   -0.01237458      18
