          18
Lattice="  24.8920   0.0000   0.0000   0.0000  24.8920   0.0000   0.0000   0.0000  24.8920 " ConfE="      -5924.2837" DelE="          0.0000"
Ni     0.01991016   -3.51410145   -0.07276740       1
Co    -0.06238730    0.00492085   -3.58275885       2
Cr    -0.03449475    0.02617309    3.56791591       3
Co     0.06824700    3.52831775   -0.05017424       4
Co    -3.51218935    0.01875077    0.01368424       5
Co     3.58124252   -0.02695350   -0.03138261       6
Ni    -1.71554194   -0.05311423   -1.77669387       7
Ni     1.67316708   -0.04547271   -1.82284645       8
Ni    -1.72799765   -1.79144304   -0.03065852       9
Ni     0.00670906   -1.76371300    1.77397565      10
Co     1.73710358   -1.71149673   -0.04155993      11
Cr    -0.01712206    1.80192278   -1.80765213      12
Co    -1.74714389    0.01200771    1.77452608      13
Cr     1.81362726    0.02444206    1.73760491      14
Co     0.05701086    1.76027878    1.74934167      15
Co    -1.69519198    1.76948562   -0.02660168      16
Cr     1.78177915    1.73513332   -0.03462188      17
Cr     0.00000000    0.00000000    0.00000000      18
          18
Lattice="  24.8920   0.0000   0.0000   0.0000  24.8920   0.0000   0.0000   0.0000  24.8920 " ConfE="      -5923.1751" DelE="          1.1086"
Ni     0.01499148   -3.48969982   -0.07297815       1
Co    -0.02963956   -0.02109112   -3.49193404       2
Cr    -0.05722428    0.00633495    3.54483036       3
Co     0.05090675    3.54538952   -0.04625373       4
Co    -3.59910715    0.05335974    0.04118413       5
Co     3.66043570    0.00403648   -0.02757093       6
Ni    -1.87971620   -0.01221918   -1.79393144       7
Ni     1.91612183    0.01135986   -1.84711785       8
Ni    -1.87377027   -1.79671628    0.01742400       9
Ni     0.00054853   -1.72632693    1.67372125      10
Co     1.90187666   -1.74381058   -0.00843551      11
Cr    -0.03663785    1.68459620   -1.77491380      12
Co    -1.74178982    0.00653880    1.73320632      13
Cr     1.75871747   -0.01482501    1.65787891      14
Co     0.05917310    1.69421890    1.68709708      15
Co    -1.67096647    1.72172380   -0.05993405      16
Cr     1.66619703    1.60000315   -0.02119921      17
Cr     0.04195225   -1.02232402   -0.99432447      18
          18
Lattice="  24.8920   0.0000   0.0000   0.0000  24.8920   0.0000   0.0000   0.0000  24.8920 " ConfE="      -5923.9989" DelE="          0.2848"
Ni     0.01612490   -3.55398892   -0.05285577       1
Co    -0.04645211    0.00855200   -3.60273749       2
Cr    -0.04770121    0.01899922    3.56729723       3
Co     0.06428712    3.57545063   -0.04010262       4
Co    -3.54242574    0.02701913    0.02077450       5
Co     3.60403128   -0.02204568   -0.02379399       6
Ni    -1.71046303   -0.02620189   -1.75240061       7
Ni     1.68300488    0.01023977   -1.76748366       8
Ni    -1.71333197   -1.76399031   -0.02584149       9
Ni     0.00860085   -1.72645684    1.72306166      10
Co     1.74076018   -1.70573719   -0.03499354      11
Cr    -0.02992281    1.76793543   -1.74191737      12
Co    -1.74337916    0.01301866    1.76309382      13
Cr     1.77896687    0.02827885    1.72496687      14
Co     0.06594383    1.70366866    1.68461761      15
Co    -1.66123931    1.75562512   -0.04703253      16
Cr     1.74016340    1.71700492    0.00934117      17
Cr     0.06207188   -1.77644249   -1.83641432      18
