          18
Lattice="  24.8920   0.0000   0.0000   0.0000  24.8920   0.0000   0.0000   0.0000  24.8920 " ConfE="      -5946.9501" DelE="          0.0000"
Ni     0.01103174   -3.45698319   -0.02606749       1
Co    -0.00379050   -0.03747743   -3.55526443       2
Co    -3.52311467    0.01644743    0.02617245       3
Co     3.58727948    0.03609992    0.00029397       4
Cr     0.01768402    3.56120481    0.01737572       5
Co     0.03008811    0.02201802    3.56988058       6
Ni    -1.72906869   -0.03845031   -1.78339400       7
Ni     1.77603139   -1.71531195   -0.00415094       8
Co     1.73001234   -0.00984658   -1.80409128       9
Cr    -1.76143504   -1.74142846    0.00338577      10
Ni     1.79126892    1.75405794    0.00340668      11
Cr     0.03594435    1.76708608   -1.78910917      12
Cr     0.00277881   -1.67281111    1.83791649      13
Co    -1.74734266    1.78382011    0.01083522      14
Cr     1.75868513    0.02838107    1.80634181      15
Co    -1.74622547    0.01345427    1.79684198      16
Cr    -0.03156163    1.74359261    1.82289013      17
Co     0.00000000    0.00000000    0.00000000      18
          18
Lattice="  24.8920   0.0000   0.0000   0.0000  24.8920   0.0000   0.0000   0.0000  24.8920 " ConfE="      -5946.1402" DelE="          0.8099"
Ni     0.01802349   -3.39863912    0.00381767       1
Co    -0.02314780   -0.07439136   -3.44366128       2
Co    -3.60232218    0.04366688    0.03830005       3
Co     3.67143339    0.04506397    0.00778272       4
Cr     0.02948946    3.54985443   -0.00003410       5
Co     0.02433827    0.01930580    3.56739006       6
Ni    -1.93114985    0.03326294   -1.81883868       7
Ni     1.96221260   -1.74269733    0.04453525       8
Co     1.85963831   -0.00640051   -1.81546142       9
Cr    -1.94774431   -1.73579414    0.05605701      10
Ni     1.76675554    1.67885247   -0.01221073      11
Cr     0.00203276    1.62334042   -1.71953904      12
Cr     0.03779446   -1.55923192    1.75382531      13
Co    -1.74260755    1.74462829    0.00502737      14
Cr     1.77954803    0.01426951    1.76087235      15
Co    -1.75601000    0.00076634    1.76045890      16
Cr    -0.04856655    1.60179067    1.73739243      17
Co    -0.06293970   -0.92959399   -0.82905059      18
          18
Lattice="  24.8920   0.0000   0.0000   0.0000  24.8920   0.0000   0.0000   0.0000  24.8920 " ConfE="      -5946.7996" DelE="          0.1505"
Ni     0.01865001   -3.50740455    0.02332769       1
Co    -0.01275243   -0.01486644   -3.59396452       2
Co    -3.54293197    0.02246143    0.03262342       3
Co     3.60164295    0.04392497    0.00075403       4
Cr     0.03254166    3.59388360    0.01269189       5
Co     0.02988325    0.02288619    3.58351227       6
Ni    -1.74938394    0.00080350   -1.76026977       7
Ni     1.75661860   -1.67931833    0.01633422       8
Co     1.73073995    0.02720651   -1.79319920       9
Cr    -1.74946290   -1.71279243    0.03108318      10
Ni     1.75041574    1.72100991    0.01121097      11
Cr     0.03931266    1.69001517   -1.74982569      12
Cr     0.00747509   -1.60069357    1.77293240      13
Co    -1.69565838    1.75693923    0.01266969      14
Cr     1.74940453    0.03784831    1.79831658      15
Co    -1.70934291    0.01091110    1.75606412      16
Cr    -0.04008211    1.67150539    1.78852361      17
Co    -0.01511059   -1.73451695   -1.74899762      18
