          18
Lattice="  24.8920   0.0000   0.0000   0.0000  24.8920   0.0000   0.0000   0.0000  24.8920 " ConfE="      -5940.7190" DelE="          0.0000"
Co    -3.60297606   -0.01269973    0.02815423       1
Cr     0.01042772    3.51453595    0.02180721       2
Co     3.58238400   -0.03638282    0.01755978       3
Cr     0.01646636   -3.62516956    0.01088974       4
Cr    -0.00757935   -0.02844187   -3.45252905       5
Cr    -0.02684873   -0.01701232    3.50219002       6
Cr    -1.76961104    0.00549845   -1.58444026       7
Cr    -1.74131499    0.07948751    1.62383071       8
Cr    -0.02503730    1.79345416   -1.68971489       9
Co    -0.03035219    1.78024979    1.72327707      10
Ni    -1.78843406   -1.86983363    0.02144167      11
Cr     1.82476361    1.77277053    0.02299043      12
Co     1.76651046   -1.78939087    0.01211482      13
Co     0.01040772   -1.80485800   -1.72638091      14
Ni    -0.03111279   -1.83636445    1.78030054      15
Cr     1.80447023   -0.04236252   -1.74557109      16
Cr     1.75079818   -0.03340264    1.77632770      17
Co     0.00000000    0.00000000    0.00000000      18
          18
Lattice="  24.8920   0.0000   0.0000   0.0000  24.8920   0.0000   0.0000   0.0000  24.8920 " ConfE="      -5940.2523" DelE="          0.4667"
Co    -3.47072980    0.00706244    0.01684246       1
Cr    -0.08161929    3.52010461    0.04850207       2
Co     3.52869180   -0.01274361    0.02546891       3
Cr    -0.01017500   -3.67277040    0.01873557       4
Cr     0.03003786   -0.04914949   -3.54747398       5
Cr     0.03839311   -0.04317600    3.61797994       6
Cr    -1.67957255   -0.13459349   -1.81024311       7
Cr    -1.67522827   -0.02172202    1.85580772       8
Cr     0.02585014    1.93970314   -1.89990039       9
Co     0.04081354    1.82304971    1.97575555      10
Ni    -1.76384147   -1.83678247    0.02791841      11
Cr     1.71074429    1.81783993    0.02523667      12
Co     1.71093031   -1.79193724    0.00839851      13
Co    -0.00881604   -1.82709101   -1.71572063      14
Ni    -0.04859149   -1.86437122    1.78405165      15
Cr     1.53311102   -0.00245980   -1.56594834      16
Cr     1.50752453   -0.02893508    1.58574547      17
Co    -0.82484441    0.96156004   -0.02689348      18
          18
Lattice="  24.8920   0.0000   0.0000   0.0000  24.8920   0.0000   0.0000   0.0000  24.8920 " ConfE="      -5940.9469" DelE="         -0.2278"
Co    -3.59263053   -0.03711851    0.01611973       1
Cr     0.04174682    3.60984557    0.00254652       2
Co     3.57170194   -0.03150508    0.02575719       3
Cr     0.01213381   -3.69640387    0.02119993       4
Cr     0.00930288   -0.03568268   -3.48967028       5
Cr    -0.01264156   -0.03304865    3.53075875       6
Cr    -1.54242468   -0.05796685   -1.52770679       7
Cr    -1.59479004    0.01621839    1.59747501       8
Cr     0.01401793    1.82434367   -1.70505806       9
Co     0.01497184    1.77511821    1.74580285      10
Ni    -1.77240907   -1.87812742    0.03136098      11
Cr     1.77480609    1.79351305    0.04287803      12
Co     1.73905357   -1.80298673    0.01572652      13
Co     0.01413765   -1.81854586   -1.69271600      14
Ni    -0.03226258   -1.88141016    1.77204042      15
Cr     1.62708613   -0.03776327   -1.57954796      16
Cr     1.59360061   -0.05943972    1.61915308      17
Co    -1.76030654    1.76031523    0.01631494      18
