          18
Lattice="  24.8920   0.0000   0.0000   0.0000  24.8920   0.0000   0.0000   0.0000  24.8920 " ConfE="      -5939.4181" DelE="          0.0000"
Ni    -3.53271656   -0.00551694    0.01849169       1
Ni    -0.02318719   -0.01769946    3.57662409       2
Ni     0.00594557    0.00582894   -3.53673476       3
Ni     0.00315006   -3.60184573    0.02822485       4
Cr     0.01809538    3.60300833    0.05431437       5
Cr     3.53376986   -0.03090745    0.00288760       6
Ni    -0.04279076    1.77007559    1.75847994       7
Co    -1.73804799    0.00354657    1.71307708       8
Cr    -1.71099973    0.06110492   -1.62883376       9
Co    -0.04120986    1.80242377   -1.68570737      10
Cr     1.81188013    1.77456879    0.01737309      11
Cr     1.70805787    0.01896878    1.75165543      12
Co     1.77371292    0.02929283   -1.75743885      13
Cr     1.74132258   -1.78323542    0.00929185      14
Co    -1.75730632   -1.84467949    0.00592374      15
Co     0.02105274   -1.80296095    1.77602625      16
Co     0.01164283   -1.79768612   -1.75894343      17
Co     0.00000000    0.00000000    0.00000000      18
          18
Lattice="  24.8920   0.0000   0.0000   0.0000  24.8920   0.0000   0.0000   0.0000  24.8920 " ConfE="      -5938.6219" DelE="          0.7962"
Ni    -3.48043305    0.00209652    0.02859084       1
Ni    -0.02923156   -0.03243549    3.66409713       2
Ni     0.00874312   -0.01227757   -3.60415255       3
Ni     0.00359094   -3.57214414    0.02640461       4
Cr     0.01636770    3.47359411    0.04166892       5
Cr     3.57342596   -0.02724480    0.00336878       6
Ni     0.00135987    1.76617957    1.93924773       7
Co    -1.77052899   -0.04478097    1.87809330       8
Cr    -1.77492673   -0.01306323   -1.81879321       9
Co     0.04889529    1.81995992   -1.90634151      10
Cr     1.70746460    1.59447659    0.00659227      11
Cr     1.62611188   -0.01827329    1.77264753      12
Co     1.75742028    0.02467921   -1.78887863      13
Cr     1.65047425   -1.61154851   -0.04257345      14
Co    -1.72767873   -1.77246694    0.00853827      15
Co     0.00726441   -1.76230794    1.77676256      16
Co    -0.00833821   -1.74458170   -1.75216221      17
Co    -0.70763182    0.70264986   -0.02985618      18
          18
Lattice="  24.8920   0.0000   0.0000   0.0000  24.8920   0.0000   0.0000   0.0000  24.8920 " ConfE="      -5939.4163" DelE="          0.0018"
Ni    -3.56742114   -0.03071572    0.02195649       1
Ni    -0.01899568   -0.02563355    3.60190727       2
Ni     0.01335474   -0.00544554   -3.55546180       3
Ni     0.00559193   -3.60767654    0.03133842       4
Cr     0.04374937    3.62360335    0.05503403       5
Cr     3.57883928   -0.03685613    0.00319359       6
Ni    -0.01016341    1.73295241    1.76805060       7
Co    -1.70202315   -0.03635970    1.69900092       8
Cr    -1.65695918   -0.05042235   -1.61036647       9
Co     0.01448310    1.76484531   -1.71057161      10
Cr     1.73530418    1.68016083   -0.00793525      11
Cr     1.67722290   -0.01084529    1.71981862      12
Co     1.75022845    0.00662588   -1.71614404      13
Cr     1.71662010   -1.72841842    0.00767904      14
Co    -1.73338242   -1.80793487    0.00372487      15
Co     0.04081201   -1.78188755    1.75310306      16
Co     0.02078347   -1.77842712   -1.73274450      17
Co    -1.73980324    1.75410107   -0.02215827      18
