          18
Lattice="  24.8920   0.0000   0.0000   0.0000  24.8920   0.0000   0.0000   0.0000  24.8920 " ConfE="      -5934.2387" DelE="          0.0000"
Co     0.06961390    0.03362636    3.47925670       1
Co    -3.32755240   -0.02570555   -0.06105833       2
Co     0.09016462   -0.02751244   -3.59627519       3
Ni     3.62147591   -0.02185516   -0.03140242       4
Co     0.14602595   -3.60811587   -0.05842554       5
Co     0.07769837    3.53142523   -0.01000003       6
Ni     0.06488528   -1.76837761    1.72692462       7
Cr     0.05029528    1.77389297    1.70466974       8
Cr    -1.63169102   -1.83843623   -0.01429887       9
Cr    -1.70561770    1.78872323    0.03754375      10
Ni     1.86775631   -0.01378580    1.73832208      11
Cr    -1.66078574   -0.09618175   -1.84299206      12
Ni     1.83677664   -0.01875492   -1.80195966      13
Ni     1.86758324   -1.81377354   -0.04450662      14
Co     1.79875082    1.77771974   -0.02261231      15
Co     0.06397284   -1.81232048   -1.82032608      16
Ni     0.03907618    1.76336888   -1.77847999      17
Co     0.00000000    0.00000000    0.00000000      18
          18
Lattice="  24.8920   0.0000   0.0000   0.0000  24.8920   0.0000   0.0000   0.0000  24.8920 " ConfE="      -5934.0416" DelE="          0.1971"
Co     0.06467308    0.03309866    3.46699262       1
Co    -3.25540987   -0.01756276   -0.06249581       2
Co     0.08812814   -0.03258755   -3.59945662       3
Ni     3.62580035   -0.02667682   -0.02515985       4
Co     0.15377610   -3.64324752   -0.06132317       5
Co     0.08144958    3.55923139   -0.00795479       6
Ni     0.09279377   -1.82655808    1.73470771       7
Cr     0.10900999    1.86586997    1.73060019       8
Cr    -1.62473918   -1.97889917   -0.00305901       9
Cr    -1.75696635    2.01010002   -0.03989706      10
Ni     1.83240056   -0.02377650    1.72086118      11
Cr    -1.65507834   -0.11100943   -1.82528278      12
Ni     1.80354038   -0.02649448   -1.77076836      13
Ni     1.85579167   -1.82062033   -0.03798384      14
Co     1.71932717    1.73589342    0.00643323      15
Co     0.03783946   -1.78932524   -1.76747603      16
Ni     0.01246973    1.73038016   -1.74430037      17
Co    -0.63780271    0.11211169    0.48612328      18
          18
Lattice="  24.8920   0.0000   0.0000   0.0000  24.8920   0.0000   0.0000   0.0000  24.8920 " ConfE="      -5934.3671" DelE="         -0.1284"
Co     0.11208908    0.01680858    3.51034057       1
Co    -3.41431849   -0.01972857   -0.09011425       2
Co     0.08766621   -0.03711600   -3.60301694       3
Ni     3.64021559   -0.02527161   -0.03158763       4
Co     0.15338657   -3.62748067   -0.06302253       5
Co     0.08232374    3.55261067   -0.01698855       6
Ni     0.08982792   -1.76928784    1.69059955       7
Cr     0.08672541    1.78563621    1.65550596       8
Cr    -1.60994251   -1.83041526   -0.03274732       9
Cr    -1.69052232    1.81583763   -0.01928541      10
Ni     1.83444909   -0.01723008    1.70821318      11
Cr    -1.64328472   -0.10049462   -1.75076896      12
Ni     1.82314619   -0.02477764   -1.78291777      13
Ni     1.86418245   -1.81482588   -0.05107688      14
Co     1.75902832    1.75394027   -0.00698705      15
Co     0.04829963   -1.78804051   -1.78649026      16
Ni     0.03523202    1.72301787   -1.74458141      17
Co    -1.58573277    0.06367006    1.59683001      18
