          18
Lattice="  24.8920   0.0000   0.0000   0.0000  24.8920   0.0000   0.0000   0.0000  24.8920 " ConfE="      -5947.4782" DelE="          0.0000"
Ni    -3.46576800   -0.01878634   -0.02930156       1
Ni     0.04639981   -3.53400384    0.02144656       2
Ni     0.04548318    3.55070425    0.02410472       3
Ni     0.01902180    0.02170733    3.57615844       4
Ni     3.60165087    0.00375645    0.03120557       5
Cr    -0.14905936   -0.05844630   -3.46959326       6
Ni    -1.73104171   -1.79467092   -0.01634127       7
Ni    -0.02600509    1.73683128   -1.73928078       8
Ni    -1.74959432    0.00835402    1.78882467       9
Cr    -1.78676897    1.79593166   -0.00903704      10
Co     0.00936008   -1.75240020   -1.79829284      11
Co     1.80941858   -0.01040105   -1.78362750      12
Co     0.04377552   -1.79087789    1.81928487      13
Cr     1.82116480    1.73980304    0.01821756      14
Co     0.04383086    1.77570607    1.77385302      15
Co     1.82070474   -1.73545170    0.00017721      16
Co     1.79349174    0.03421230    1.79372472      17
Ni     0.00000000    0.00000000    0.00000000      18
          18
Lattice="  24.8920   0.0000   0.0000   0.0000  24.8920   0.0000   0.0000   0.0000  24.8920 " ConfE="      -5946.8578" DelE="          0.6204"
Ni    -3.46540899   -0.01765122   -0.01023146       1
Ni     0.06396350   -3.59669339    0.04270506       2
Ni     0.06546180    3.62123824    0.04343557       3
Ni     0.01193325    0.02595543    3.57152667       4
Ni     3.59107521   -0.00168949    0.02882883       5
Cr    -0.14913219   -0.00992404   -3.47450651       6
Ni    -1.74560268   -1.94534465    0.05536660       7
Ni     0.07920471    1.90873615   -1.75969357       8
Ni    -1.70117882    0.00171616    1.69790124       9
Cr    -1.80005121    1.97995454    0.05116527      10
Co     0.07077432   -1.88324764   -1.81102398      11
Co     1.73709702    0.00618258   -1.75793905      12
Co     0.04496491   -1.78835159    1.79559147      13
Cr     1.72762418    1.66600496    0.07530670      14
Co     0.03102276    1.75921213    1.70465595      15
Co     1.76609659   -1.70751155   -0.00604237      16
Co     1.74184176    0.03398307    1.74083085      17
Ni    -1.10983235    0.03668405   -1.00904492      18
          18
Lattice="  24.8920   0.0000   0.0000   0.0000  24.8920   0.0000   0.0000   0.0000  24.8920 " ConfE="      -5947.3416" DelE="          0.1366"
Ni    -3.52589592   -0.02066894    0.02607024       1
Ni     0.05192276   -3.55548445    0.03045542       2
Ni     0.04818323    3.58202697    0.03179675       3
Ni     0.01752826    0.02725004    3.58617057       4
Ni     3.61617547    0.00361346    0.03529297       5
Cr    -0.06345844   -0.00047031   -3.55899436       6
Ni    -1.69507553   -1.79488075    0.02210373       7
Ni     0.02528372    1.73975009   -1.68092332       8
Ni    -1.72196071    0.00220673    1.75483043       9
Cr    -1.76506303    1.80533826    0.03094591      10
Co     0.05685369   -1.77372398   -1.78399269      11
Co     1.77575523    0.00093397   -1.75162034      12
Co     0.05375458   -1.78226997    1.81622920      13
Cr     1.77981237    1.69156736    0.07321534      14
Co     0.03360944    1.74858968    1.71420301      15
Co     1.77908762   -1.69415205    0.00268788      16
Co     1.75469755    0.04601216    1.74387235      17
Ni    -1.70988553   -0.01708189   -1.68316307      18
