          18
Lattice="  24.8920   0.0000   0.0000   0.0000  24.8920   0.0000   0.0000   0.0000  24.8920 " ConfE="      -5935.2848" DelE="          0.0000"
Cr     0.04106945   -3.43275509   -0.08367859       1
Cr     3.52656395   -0.07568311   -0.02843150       2
Ni    -0.00843180    3.53825298   -0.02708172       3
Cr    -3.51348387    0.00529484    0.02915273       4
Co    -0.00294487   -0.03051501   -3.57229633       5
Co    -0.00201333    0.03607462    3.50356439       6
Co     0.03138957   -1.76927317   -1.72280078       7
Ni     0.04094768   -1.76134840    1.73248133       8
Co     1.80317367   -0.04702459   -1.73462418       9
Ni     1.78608301   -0.02414756    1.72925462      10
Ni    -1.78576794   -1.72763675   -0.00799887      11
Ni     1.77779790    1.77908057    0.00108779      12
Cr    -1.74970088    1.70502873    0.01971315      13
Co    -1.79191875   -0.00424018   -1.78542620      14
Co    -1.77947561    0.01688716    1.76528185      15
Ni    -0.00317911    1.74102920   -1.79764490      16
Cr     0.04545882    1.76416405    1.80764096      17
Co     0.00000000    0.00000000    0.00000000      18
          18
Lattice="  24.8920   0.0000   0.0000   0.0000  24.8920   0.0000   0.0000   0.0000  24.8920 " ConfE="      -5934.2030" DelE="          1.0817"
Cr     0.12970456   -3.35321020   -0.08073755       1
Cr     3.42017494   -0.22779216    0.00745126       2
Ni     0.01140166    3.50756417   -0.02548041       3
Cr    -3.52001049   -0.02523695    0.02693594       4
Co    -0.01313730   -0.00620897   -3.65157280       5
Co     0.00185278    0.04574710    3.58883128       6
Co    -0.00409220   -1.80612415   -1.91677388       7
Ni     0.04986297   -1.80749507    1.90471901       8
Co     1.86441963   -0.01769246   -1.93468461       9
Ni     1.84339867    0.01280151    1.92137131      10
Ni    -1.67069399   -1.70034417   -0.01092220      11
Ni     1.78234796    1.68141553    0.01545049      12
Cr    -1.66714084    1.58835727    0.01683787      13
Co    -1.75739723   -0.01503431   -1.78620832      14
Co    -1.64760822    0.02368653    1.72380407      15
Ni     0.03182335    1.66674004   -1.76472167      16
Cr     0.05922276    1.71119024    1.78768729      17
Co     0.73364884   -0.67893147   -0.03052855      18
          18
Lattice="  24.8920   0.0000   0.0000   0.0000  24.8920   0.0000   0.0000   0.0000  24.8920 " ConfE="      -5935.5300" DelE="         -0.2452"
Cr     0.01037124   -3.47893956   -0.07126814       1
Cr     3.58771172   -0.01103996   -0.02232006       2
Ni    -0.01661364    3.54266758   -0.02383802       3
Cr    -3.55574832    0.00897373    0.02481130       4
Co    -0.01179198   -0.01958469   -3.59713403       5
Co    -0.00454980    0.04714867    3.52668174       6
Co     0.00971601   -1.74134103   -1.75295926       7
Ni     0.01453444   -1.72168923    1.73337007       8
Co     1.79456119   -0.01490424   -1.77148582       9
Ni     1.76482781    0.01120444    1.74458142      10
Ni    -1.73356872   -1.67779593   -0.01240148      11
Ni     1.73512487    1.72942451    0.00422477      12
Cr    -1.72951281    1.65906429    0.02854511      13
Co    -1.78281548    0.00732422   -1.76821410      14
Co    -1.71839035    0.06416341    1.71087339      15
Ni    -0.01249785    1.70470040   -1.76249170      16
Cr     0.02827019    1.76089405    1.79513543      17
Co     1.76114908   -1.73385099   -0.02790419      18
