          19
Lattice="  24.8920   0.0000   0.0000   0.0000  24.8920   0.0000   0.0000   0.0000  24.8920 " ConfE="      -5948.4630" DelE="          0.0000"
Ni    -2.75141166    0.04055488    2.59223726       1
Ni     3.55051184    0.03176997   -0.05851286       2
Ni    -0.00013506    0.08454015   -3.65860808       3
Ni    -3.48692134    0.00929733   -0.00467930       4
Ni    -0.03709344    0.03968408    3.44745162       5
Cr     0.06914738   -3.47708733   -0.04608066       6
Cr    -0.07336162    3.60856854   -0.03879753       7
Co     0.02686321   -1.74498782    1.67453788       8
Ni    -0.01564794    1.80695362    1.72428643       9
Cr    -1.65545346   -1.67961444    0.05783842      10
Ni    -1.76685636    1.78311053   -0.02646953      11
Cr     1.83190839    0.06990470   -1.87219698      12
Co     1.80690874   -1.72342978   -0.08161789      13
Ni     1.77691481    1.80752269   -0.04237817      14
Ni     0.02391345   -1.70610910   -1.84505427      15
Ni     0.02642019    1.80847362   -1.81618172      16
Cr     1.80715543    0.02150295    1.76726702      17
Ni    -1.75360625    0.05084846   -1.85481049      18
Co     0.00000000    0.00000000    0.00000000      19
          19
Lattice="  24.8920   0.0000   0.0000   0.0000  24.8920   0.0000   0.0000   0.0000  24.8920 " ConfE="      -5947.6907" DelE="          0.7723"
Ni    -2.89131955    0.04905362    2.72517271       1
Ni     3.56605109    0.03802044   -0.05509171       2
Ni    -0.00463413    0.08352358   -3.64998733       3
Ni    -3.46848474    0.02275374    0.00345013       4
Ni    -0.02427492    0.04112766    3.42364138       5
Cr     0.10179988   -3.54708053   -0.04846542       6
Cr    -0.04760065    3.67884475   -0.06928621       7
Co     0.11079606   -1.91318231    1.70874950       8
Ni    -0.00272573    1.92773622    1.73346056       9
Cr    -1.76505839   -1.87800373   -0.02664529      10
Ni    -1.79673676    1.92637843   -0.07777112      11
Cr     1.80586443    0.06523038   -1.82113826      12
Co     1.78165657   -1.69124440   -0.06679983      13
Ni     1.73937803    1.79662921   -0.03643745      14
Ni     0.01649618   -1.68798712   -1.78736618      15
Ni     0.01943072    1.79917381   -1.79079376      16
Cr     1.69686941    0.00529113    1.66885540      17
Ni    -1.72955234    0.04910395   -1.79624659      18
Co    -0.89662335   -0.05916559    0.82008398      19
          19
Lattice="  24.8920   0.0000   0.0000   0.0000  24.8920   0.0000   0.0000   0.0000  24.8920 " ConfE="      -5948.8836" DelE="         -0.4206"
Ni    -3.52107161    0.04027403    3.46745113       1
Ni     3.57566403    0.03412119   -0.06635842       2
Ni     0.00339198    0.08552552   -3.68432473       3
Ni    -3.54953506    0.01819778   -0.08500589       4
Ni     0.02716633    0.03157461    3.51069717       5
Cr     0.09916413   -3.51216069   -0.06259732       6
Cr    -0.06548443    3.62471981   -0.05359123       7
Co     0.07913257   -1.68560772    1.61596234       8
Ni     0.01056984    1.77933030    1.69770191       9
Cr    -1.63704675   -1.69290354   -0.00130099      10
Ni    -1.74263381    1.77318365   -0.06662958      11
Cr     1.86507071    0.07841445   -1.90280391      12
Co     1.78870354   -1.66757675   -0.09938993      13
Ni     1.75302029    1.76146656   -0.05095111      14
Ni     0.03471087   -1.67304827   -1.82538963      15
Ni     0.04084502    1.78312115   -1.81625682      16
Cr     1.78068640    0.00566221    1.74069660      17
Ni    -1.73325644    0.04607174   -1.84988540      18
Co    -1.72010696   -0.00154394    1.64162066      19
