          18
Lattice="  24.8920   0.0000   0.0000   0.0000  24.8920   0.0000   0.0000   0.0000  24.8920 " ConfE="      -5938.1062" DelE="          0.0000"
Co    -3.54830123    0.02887390   -0.02204457       1
Cr    -0.12641539    0.01597252    3.53964008       2
Ni     3.55686444    0.02485192   -0.00846090       3
Ni     0.03666513   -0.01658417   -3.58135742       4
Ni     0.03780437   -3.51888277   -0.00791208       5
Ni     0.01088202    3.54101005    0.01168904       6
Ni    -1.76089108   -1.70999876   -0.01040031       7
Ni    -1.74984405    1.74785325   -0.03236070       8
Ni    -0.00633143   -1.72015046    1.78281121       9
Ni    -0.01834677    1.74440735    1.78006718      10
Co    -1.78479719    0.05027166   -1.87815707      11
Ni     1.77135608    0.02326630    1.77201814      12
Cr     1.82949094   -0.03568983   -1.78862733      13
Ni     0.02260797   -1.72116040   -1.79998883      14
Ni     0.02965327    1.76219364   -1.79434042      15
Co     1.81878184   -1.78174175   -0.00132927      16
Ni     1.78583708    1.77134795   -0.00602423      17
Ni     0.00000000    0.00000000    0.00000000      18
          18
Lattice="  24.8920   0.0000   0.0000   0.0000  24.8920   0.0000   0.0000   0.0000  24.8920 " ConfE="      -5937.4606" DelE="          0.6456"
Co    -3.51007010    0.02578670   -0.00726675       1
Cr    -0.15291107    0.01303086    3.44776632       2
Ni     3.55508903    0.02790277    0.00592125       3
Ni     0.02791792   -0.01633957   -3.55829325       4
Ni     0.04844744   -3.57394397   -0.02572380       5
Ni     0.02760186    3.60219742    0.00144036       6
Ni    -1.79713612   -1.85681224   -0.04405787       7
Ni    -1.77534525    1.90222750   -0.06177548       8
Ni     0.05349254   -1.91458830    1.80496441       9
Ni     0.04316848    1.93648038    1.81719410      10
Co    -1.76968801    0.04841434   -1.80442299      11
Ni     1.70380035    0.01828526    1.75467715      12
Cr     1.76847237   -0.04312817   -1.70647497      13
Ni     0.00361813   -1.70377481   -1.75123522      14
Ni     0.02265314    1.74380700   -1.74704701      15
Co     1.78495871   -1.75239094   -0.01185817      16
Ni     1.76032831    1.76253471    0.00441777      17
Ni    -0.64991069    0.00814152    0.71834810      18
          18
Lattice="  24.8920   0.0000   0.0000   0.0000  24.8920   0.0000   0.0000   0.0000  24.8920 " ConfE="      -5938.2725" DelE="         -0.1663"
Co    -3.58524241    0.03222467   -0.03498792       1
Cr    -0.01940720    0.02890092    3.60711848       2
Ni     3.58524404    0.02601836   -0.00841947       3
Ni     0.04398300   -0.02070127   -3.59127634       4
Ni     0.04608633   -3.52633179   -0.01402792       5
Ni     0.02290365    3.54978616    0.00719256       6
Ni    -1.72522879   -1.69065189   -0.03641998       7
Ni    -1.72097466    1.73525725   -0.04196084       8
Ni     0.03834446   -1.72546128    1.75814957       9
Ni     0.03505691    1.75915621    1.76559986      10
Co    -1.77958694    0.05832761   -1.86219683      11
Ni     1.75819752    0.01987292    1.74595307      12
Cr     1.82732745   -0.04830934   -1.76718878      13
Ni     0.02963578   -1.68173917   -1.77107801      14
Ni     0.04524190    1.72116568   -1.76376900      15
Co     1.80972609   -1.74683692   -0.02190474      16
Ni     1.77873348    1.73555147   -0.01578289      17
Ni    -1.71088851    0.01550811    1.75619070      18
