          18
Lattice="  24.8920   0.0000   0.0000   0.0000  24.8920   0.0000   0.0000   0.0000  24.8920 " ConfE="      -5937.5187" DelE="          0.0000"
Ni    -0.00008217   -3.47156215   -0.02570258       1
Ni     0.00439740    0.03342356    3.56454005       2
Cr    -0.00770633   -0.03835916   -3.43541734       3
Cr    -0.00266086    3.60158747    0.05494997       4
Co    -3.50178831    0.02293568    0.05443668       5
Co     3.55982391    0.00411111    0.02528635       6
Co    -1.78825282   -1.72349088    0.02132275       7
Co     1.74810190   -1.72753911   -0.00194607       8
Ni    -1.75905209    1.80778349    0.03576822       9
Ni     0.02161611    1.82244299   -1.72366459      10
Co    -1.72557726   -0.00247460   -1.72193560      11
Co     1.79697719    0.02146567   -1.73628042      12
Cr     1.77572958    1.71094077    0.11441726      13
Co     0.00273353   -1.75129854    1.80352012      14
Co    -0.03277144    1.80455480    1.80511609      15
Cr    -1.74715711   -0.01500334    1.75725046      16
Co     1.75014308    0.04756434    1.77354263      17
Co     0.00000000    0.00000000    0.00000000      18
          18
Lattice="  24.8920   0.0000   0.0000   0.0000  24.8920   0.0000   0.0000   0.0000  24.8920 " ConfE="      -5936.7595" DelE="          0.7592"
Ni     0.01134732   -3.42406721   -0.04542608       1
Ni     0.00778779    0.03261852    3.56550858       2
Cr    -0.01116701   -0.08398747   -3.37887088       3
Cr    -0.01898195    3.61250436    0.04066752       4
Co    -3.57012753    0.04752680    0.06640395       5
Co     3.63431479    0.00638211    0.05952505       6
Co    -1.92365621   -1.73560081    0.05080574       7
Co     1.89550398   -1.75468631    0.04226155       8
Ni    -1.73487964    1.74877902    0.02764249       9
Ni     0.03662609    1.73895334   -1.69496695      10
Co    -1.92524132    0.03665140   -1.74531384      11
Co     1.99093291    0.06182669   -1.75250254      12
Cr     1.76268975    1.66005326    0.11770543      13
Co    -0.02139212   -1.67964432    1.71713012      14
Co    -0.02483211    1.76962770    1.76679440      15
Cr    -1.71303921   -0.03795992    1.71055970      16
Co     1.73868615    0.04110375    1.73405940      17
Co     0.00860496   -0.72838498   -0.79965862      18
          18
Lattice="  24.8920   0.0000   0.0000   0.0000  24.8920   0.0000   0.0000   0.0000  24.8920 " ConfE="      -5937.5235" DelE="         -0.0047"
Ni    -0.00078547   -3.52385634    0.01662823       1
Ni     0.00536180    0.03781438    3.58445221       2
Cr    -0.02221357   -0.00101284   -3.49561645       3
Cr    -0.01811116    3.62971701    0.05596869       4
Co    -3.51736296    0.02506530    0.06570672       5
Co     3.57283560    0.00829661    0.03040446       6
Co    -1.76974899   -1.70122072    0.03437331       7
Co     1.72466392   -1.70473937    0.02528887       8
Ni    -1.72316226    1.76462603    0.05101053       9
Ni     0.02916089    1.76747992   -1.68666183      10
Co    -1.73771922    0.00898075   -1.69948997      11
Co     1.80000017    0.04373372   -1.70593099      12
Cr     1.75469655    1.70133557    0.13187367      13
Co    -0.02638684   -1.69720102    1.76271071      14
Co    -0.02650228    1.78942156    1.79512647      15
Cr    -1.71968239   -0.02036119    1.76031118      16
Co     1.71073049    0.06037854    1.73776692      17
Co     0.00876429   -1.71499260   -1.75961023      18
