          18
Lattice="  24.8920   0.0000   0.0000   0.0000  24.8920   0.0000   0.0000   0.0000  24.8920 " ConfE="      -5948.7526" DelE="          0.0000"
Cr    -0.10035687    3.48745533   -0.03965647       1
Ni     0.00187065    0.01407199   -3.64618638       2
Co     0.04276152    0.07857967    3.35793551       3
Co     3.58510042    0.01303959   -0.10840784       4
Cr    -3.53359566    0.01264205   -0.06185386       5
Cr     0.06047317   -3.52307601   -0.13915874       6
Ni     1.72925043    1.74395659   -0.04187021       7
Ni    -0.01979348    1.77570327   -1.87251119       8
Cr     1.80765542    0.00698216    1.74681636       9
Co    -1.75890848    1.73969453   -0.03162599      10
Ni     0.00100825   -1.80937756    1.71045689      11
Cr    -1.83904399    0.02684661    1.71626392      12
Ni     0.01035550   -1.74895448   -1.83720017      13
Co     1.78745484    0.01849431   -1.85596167      14
Co    -1.79410377    0.00015691   -1.82001696      15
Cr     1.86506301   -1.71900305   -0.02480474      16
Cr    -1.80172371   -1.73588762   -0.07642788      17
Ni     0.00000000    0.00000000    0.00000000      18
          18
Lattice="  24.8920   0.0000   0.0000   0.0000  24.8920   0.0000   0.0000   0.0000  24.8920 " ConfE="      -5948.2706" DelE="          0.4820"
Cr    -0.08857331    3.42359572   -0.00693566       1
Ni     0.00317998    0.02808238   -3.65344111       2
Co     0.01071296    0.03400406    3.42007355       3
Co     3.64050690    0.00400912   -0.12381938       4
Cr    -3.60547695   -0.01829669   -0.11213393       5
Cr     0.05425314   -3.52540709   -0.13033061       6
Ni     1.83332815    1.75064490   -0.10126997       7
Ni    -0.01878980    1.77020770   -1.84456697       8
Cr     1.98941832   -0.08274773    1.73793169       9
Co    -1.89810113    1.76642344   -0.13477269      10
Ni    -0.01558870   -1.70695588    1.66164416      11
Cr    -2.04974781   -0.01512001    1.75927992      12
Ni    -0.00414092   -1.71261308   -1.81358954      13
Co     1.77478296    0.01601577   -1.82679692      14
Co    -1.78951633    0.00197273   -1.78969010      15
Cr     1.76478328   -1.64711601   -0.06143159      16
Cr    -1.75612454   -1.66088077   -0.08546375      17
Ni    -0.03833127    0.84502773    1.01714335      18
          18
Lattice="  24.8920   0.0000   0.0000   0.0000  24.8920   0.0000   0.0000   0.0000  24.8920 " ConfE="      -5948.6548" DelE="          0.0978"
Cr    -0.06552376    3.54148540   -0.08809276       1
Ni     0.00411413    0.01841199   -3.64934649       2
Co    -0.00361210   -0.02320345    3.45796000       3
Co     3.62766709    0.01055907   -0.12381902       4
Cr    -3.59751455   -0.00008814   -0.07843226       5
Cr     0.05790667   -3.54349451   -0.14046649       6
Ni     1.73825746    1.71260637   -0.07276856       7
Ni    -0.01607788    1.77328708   -1.84366103       8
Cr     1.82270911   -0.02740083    1.68689277       9
Co    -1.77098893    1.69478447   -0.07041288      10
Ni    -0.01024330   -1.73078797    1.63190362      11
Cr    -1.86085509    0.00981552    1.66766464      12
Ni     0.00341774   -1.72984396   -1.80863452      13
Co     1.77397959    0.00641279   -1.82871002      14
Co    -1.77617105   -0.00603890   -1.78449590      15
Cr     1.81629309   -1.67520007   -0.05516178      16
Cr    -1.78534103   -1.68892458   -0.10949853      17
Ni    -0.01733157    1.69553672    1.67523796      18
