          18
Lattice="  24.8920   0.0000   0.0000   0.0000  24.8920   0.0000   0.0000   0.0000  24.8920 " ConfE="      -5938.5342" DelE="          0.0000"
Co    -0.02750787    0.07215179   -3.58428603       1
Ni    -0.01666837    3.55812464   -0.09260225       2
Ni     0.00570388    0.00295261    3.49857596       3
Co     0.04584229   -3.55684559   -0.06826034       4
Ni     3.51669780    0.02227763   -0.07314900       5
Ni    -3.50088038   -0.03511401   -0.04275278       6
Ni     1.72497643    0.04670635   -1.82375596       7
Co    -1.74031007    0.03890259   -1.83162305       8
Ni     1.71694650    1.78348053   -0.10622924       9
Ni    -1.72736018    1.79024939   -0.08745332      10
Ni     0.01607112   -1.77479814   -1.78874233      11
Ni    -0.01083564    1.76658315    1.73854791      12
Ni     0.00825457   -1.78209925    1.74039372      13
Ni     1.78014208   -1.75401930   -0.03443056      14
Co    -1.77997230   -1.78341366   -0.04429305      15
Cr     1.76042377   -0.01834034    1.75879425      16
Co    -1.76730507   -0.06028038    1.72104114      17
Co     0.00000000    0.00000000    0.00000000      18
          18
Lattice="  24.8920   0.0000   0.0000   0.0000  24.8920   0.0000   0.0000   0.0000  24.8920 " ConfE="      -5937.6416" DelE="          0.8926"
Co    -0.02937758    0.07655135   -3.52376547       1
Ni    -0.00709288    3.50520493   -0.09774087       2
Ni     0.00469302    0.01300276    3.50166445       3
Co     0.04951887   -3.54136452   -0.08159406       4
Ni     3.57194193    0.02195542   -0.04941331       5
Ni    -3.55273598   -0.03686545   -0.02385385       6
Ni     1.94609648   -0.00894393   -1.88511352       7
Co    -1.98125869   -0.05048859   -1.90886942       8
Ni     1.84797071    1.79763288   -0.06694340       9
Ni    -1.86021561    1.80955792   -0.02651806      10
Ni     0.00919246   -1.71501385   -1.77516223      11
Ni    -0.00035381    1.70960156    1.66468292      12
Ni     0.01194958   -1.72222142    1.69772248      13
Ni     1.75396789   -1.68048635   -0.03801498      14
Co    -1.77493734   -1.74210010   -0.04635223      15
Cr     1.79324869   -0.00886231    1.77621445      16
Co    -1.76621358   -0.04698731    1.69021770      17
Co    -0.03368380    0.65990811   -0.89823995      18
          18
Lattice="  24.8920   0.0000   0.0000   0.0000  24.8920   0.0000   0.0000   0.0000  24.8920 " ConfE="      -5938.6815" DelE="         -0.1473"
Co    -0.02152183    0.01599180   -3.62811429       1
Ni    -0.01183698    3.57171376   -0.05288173       2
Ni     0.00535593    0.00204024    3.51123619       3
Co     0.05087444   -3.56709503   -0.07252644       4
Ni     3.53637390    0.01682076   -0.06543712       5
Ni    -3.52664972   -0.03116667   -0.04045317       6
Ni     1.72625299    0.02601946   -1.80850513       7
Co    -1.77016847   -0.00461959   -1.81937107       8
Ni     1.71246818    1.73519346   -0.06668202       9
Ni    -1.73679318    1.76311352   -0.06103900      10
Ni     0.00464149   -1.73852575   -1.75918943      11
Ni    -0.00601641    1.71082456    1.69788864      12
Ni     0.00950714   -1.74503899    1.71505363      13
Ni     1.75073144   -1.71500063   -0.01551069      14
Co    -1.78189536   -1.76789874   -0.03108077      15
Cr     1.79717197   -0.03426087    1.81039726      16
Co    -1.75527826   -0.06075440    1.69171715      17
Co    -0.04797754    1.81138435   -1.87137716      18
