          18
Lattice="  24.8920   0.0000   0.0000   0.0000  24.8920   0.0000   0.0000   0.0000  24.8920 " ConfE="      -5949.7519" DelE="          0.0000"
Co     0.06359015   -3.46943265   -0.03296578       1
Ni     0.01488446   -0.00805822   -3.47560994       2
Cr     0.03315349    3.60392496    0.03110530       3
Co     0.00609954    0.07162290    3.60692675       4
Co    -3.47956456    0.03120759    0.06035036       5
Ni     3.57991861   -0.00315005    0.06888055       6
Ni    -1.71913361   -1.77170687    0.01156677       7
Ni     1.77726016   -1.71675499    0.02783038       8
Co    -1.69505939   -0.00568610   -1.69518956       9
Co     1.74513389    0.03368938   -1.69110636      10
Co     0.01140294   -1.72682143    1.84849973      11
Cr     0.04012713    1.83878554   -1.74439715      12
Co     0.05842452    1.83986780    1.77833076      13
Cr    -1.66902515   -0.01826547    1.79608949      14
Ni     1.79504444    0.03557935    1.83937757      15
Co    -1.69156712    1.78920823    0.05322578      16
Cr     1.76846711    1.79602513    0.04763289      17
Cr     0.00000000    0.00000000    0.00000000      18
          18
Lattice="  24.8920   0.0000   0.0000   0.0000  24.8920   0.0000   0.0000   0.0000  24.8920 " ConfE="      -5949.0040" DelE="          0.7480"
Co     0.04800973   -3.42052476   -0.01043373       1
Ni     0.00669373   -0.00374127   -3.45933453       2
Cr     0.04157581    3.56291526    0.01992145       3
Co     0.01228189    0.06644605    3.62186833       4
Co    -3.56457777    0.04525211    0.08583226       5
Ni     3.64428131   -0.00919961    0.08003256       6
Ni    -1.87561035   -1.76213573    0.08060535       7
Ni     1.91190907   -1.73023241    0.09499629       8
Co    -1.84819108    0.04830353   -1.71718489       9
Co     1.88266827    0.03583655   -1.71963599      10
Co    -0.01144469   -1.65905261    1.75190730      11
Cr     0.02711512    1.77692783   -1.72145840      12
Co     0.07212980    1.80587161    1.74893573      13
Cr    -1.61245969   -0.00197192    1.72743855      14
Ni     1.78801077    0.02745760    1.81419903      15
Co    -1.63765505    1.68842864    0.04893357      16
Cr     1.69584907    1.66227056    0.00110482      17
Cr     0.02748766   -1.01308969   -1.01029633      18
          18
Lattice="  24.8920   0.0000   0.0000   0.0000  24.8920   0.0000   0.0000   0.0000  24.8920 " ConfE="      -5949.7000" DelE="          0.0520"
Co     0.03500991   -3.49544030    0.02674500       1
Ni     0.02366855    0.02837246   -3.53982618       2
Cr     0.02929656    3.59197886    0.02549118       3
Co     0.01225991    0.08056170    3.64740205       4
Co    -3.51456833    0.03877323    0.07114610       5
Ni     3.59620712   -0.00267088    0.07360147       6
Ni    -1.72633336   -1.71596684    0.05934131       7
Ni     1.74640853   -1.68390369    0.05801692       8
Co    -1.68865348    0.02707056   -1.67324766       9
Co     1.72835059    0.05500435   -1.67642658      10
Co    -0.01350416   -1.67763153    1.82598722      11
Cr     0.02974947    1.75103069   -1.69580114      12
Co     0.06268438    1.80506075    1.75219084      13
Cr    -1.63343945    0.00598960    1.80646186      14
Ni     1.78657483    0.04645769    1.83569260      15
Co    -1.65546975    1.74881620    0.06827926      16
Cr     1.72696640    1.76841506    0.04735497      17
Cr     0.01351995   -1.68666226   -1.71577155      18
