          18
Lattice="  24.8920   0.0000   0.0000   0.0000  24.8920   0.0000   0.0000   0.0000  24.8920 " ConfE="      -5932.5072" DelE="          0.0000"
Ni    -0.05185424   -3.38300043   -0.06620456       1
Co    -0.04700621    0.13462397    3.37104289       2
Co    -3.59963568    0.11766542   -0.17447589       3
Cr     3.44296803    0.08190450   -0.01902859       4
Cr    -0.09920607    3.76245201   -0.16085632       5
Co    -0.07081589    0.09904197   -3.70493242       6
Ni    -1.81280739    0.09795067    1.63572454       7
Cr     1.63085767    0.16014929    1.74441752       8
Co    -1.82340356   -1.63923094   -0.10084741       9
Co     1.73861203   -1.64696931   -0.06150406      10
Ni     1.71055069    1.91167659   -0.10822597      11
Ni     1.70136268    0.11696609   -1.88689159      12
Co    -0.10310568    1.99042417    1.61855336      13
Cr    -0.01527039   -1.67441426   -1.92040719      14
Cr    -1.81855324    1.86285153   -0.18978228      15
Cr    -1.82350726    0.06256453   -1.92969842      16
Cr    -0.06467144    1.89739490   -1.92992751      17
Cr     0.00000000    0.00000000    0.00000000      18
          18
Lattice="  24.8920   0.0000   0.0000   0.0000  24.8920   0.0000   0.0000   0.0000  24.8920 " ConfE="      -5931.9783" DelE="          0.5289"
Ni    -0.05727664   -3.33054051   -0.08722121       1
Co    -0.06207769    0.13281480    3.35551604       2
Co    -3.66546730    0.13833658   -0.17886460       3
Cr     3.55842067    0.11583240   -0.06562296       4
Cr    -0.10416087    3.70879350   -0.14204408       5
Co    -0.06279226    0.09916996   -3.70669476       6
Ni    -1.98708618    0.13997351    1.69041973       7
Cr     1.78124766    0.20327881    1.71878522       8
Co    -1.94531354   -1.62236779   -0.12749701       9
Co     1.85654168   -1.65783049   -0.11946964      10
Ni     1.71331450    1.87253979   -0.10165113      11
Ni     1.70257916    0.11302994   -1.84540949      12
Co    -0.09890463    1.86947009    1.58037970      13
Cr     0.00330953   -1.62537038   -1.87976879      14
Cr    -1.74046874    1.74848951   -0.13280329      15
Cr    -1.75117826    0.02560259   -1.83323572      16
Cr    -0.06162394    1.81735501   -1.88298384      17
Cr    -0.04122882   -0.78461166    0.84467787      18
          18
Lattice="  24.8920   0.0000   0.0000   0.0000  24.8920   0.0000   0.0000   0.0000  24.8920 " ConfE="      -5932.5620" DelE="         -0.0548"
Ni    -0.05192478   -3.43083956   -0.11268987       1
Co    -0.05742695    0.15932853    3.41906763       2
Co    -3.62673091    0.13086750   -0.17784940       3
Cr     3.50875511    0.10534693   -0.04904389       4
Cr    -0.10382405    3.74186435   -0.16682030       5
Co    -0.06712441    0.09994170   -3.72626442       6
Ni    -1.81631139    0.13667340    1.59796674       7
Cr     1.62881973    0.17235084    1.65082552       8
Co    -1.81717169   -1.59713517   -0.13234357       9
Co     1.72996702   -1.62127876   -0.09578570      10
Ni     1.70931845    1.89589853   -0.12520314      11
Ni     1.70200331    0.11655738   -1.86563137      12
Co    -0.09161117    1.91563349    1.57271856      13
Cr    -0.02824858   -1.59557168   -1.84257508      14
Cr    -1.79973476    1.86120960   -0.20205705      15
Cr    -1.81685215    0.06906374   -1.90750394      16
Cr    -0.06411129    1.79554374   -1.89371599      17
Cr    -0.03899283   -1.55409858    1.56874718      18
