          18
Lattice="  24.8920   0.0000   0.0000   0.0000  24.8920   0.0000   0.0000   0.0000  24.8920 " ConfE="      -5924.0442" DelE="          0.0000"
Co     0.04778735    0.02226070   -3.54766142       1
Ni     3.51839398    0.01351924   -0.02799305       2
Co    -0.02992796   -0.00201626    3.54813099       3
Ni    -3.59311776   -0.04336989   -0.01186627       4
Ni    -0.01108943   -3.51755624   -0.00003697       5
Ni    -0.02677798    3.52984715   -0.03024126       6
Ni     0.02193043   -1.72261734   -1.80594256       7
Ni    -0.01266449    1.75840428   -1.80639050       8
Co     1.77124781   -1.76449728   -0.01734010       9
Ni     1.75094518    1.75246159   -0.01512836      10
Ni    -1.80182195   -0.02380621   -1.78474465      11
Cr     1.83338647   -0.01164938    1.80484335      12
Cr    -1.88195068    0.03730873    1.82548489      13
Co    -1.81918620   -1.78476199    0.04650375      14
Ni    -1.80571832    1.75399298   -0.00893991      15
Ni    -0.01136579   -1.73687576    1.78123378      16
Co    -0.02929696    1.70950420    1.80009526      17
Ni     0.00000000    0.00000000    0.00000000      18
          18
Lattice="  24.8920   0.0000   0.0000   0.0000  24.8920   0.0000   0.0000   0.0000  24.8920 " ConfE="      -5923.2682" DelE="          0.7760"
Co     0.03296375    0.01542955   -3.51997991       1
Ni     3.47302498    0.02193279   -0.04602149       2
Co    -0.02295962   -0.00774289    3.55958238       3
Ni    -3.58762792   -0.04160660   -0.02261328       4
Ni    -0.02637222   -3.57257708    0.01091647       5
Ni    -0.03491448    3.58288767   -0.01968014       6
Ni    -0.06367962   -1.88621303   -1.82854887       7
Ni    -0.07478594    1.90881956   -1.83633016       8
Co     1.82833288   -1.93975799    0.03905838       9
Ni     1.79323172    1.92578373    0.01341735      10
Ni    -1.72746974   -0.02037183   -1.74586309      11
Cr     1.74659248    0.01137940    1.69376248      12
Cr    -1.83460923    0.03597794    1.78287639      13
Co    -1.80120785   -1.77735097    0.03628778      14
Ni    -1.77537753    1.73990201   -0.01336281      15
Ni    -0.00269443   -1.70464074    1.72597971      16
Co    -0.01828889    1.63910288    1.72450336      17
Ni     0.95960510   -0.00323501   -0.95952324      18
          18
Lattice="  24.8920   0.0000   0.0000   0.0000  24.8920   0.0000   0.0000   0.0000  24.8920 " ConfE="      -5924.0037" DelE="          0.0405"
Co    -0.02954651    0.00992551   -3.58801008       1
Ni     3.55837483    0.01587143   -0.01638012       2
Co    -0.03432346   -0.00907496    3.57430156       3
Ni    -3.61823050   -0.04164284   -0.01378872       4
Ni    -0.02051757   -3.53325193    0.00883821       5
Ni    -0.03212167    3.53558164   -0.02894705       6
Ni    -0.03907615   -1.74313259   -1.76981231       7
Ni    -0.04132333    1.76294666   -1.79712907       8
Co     1.74498509   -1.75026355    0.01202410       9
Ni     1.72354996    1.73486276    0.00091240      10
Ni    -1.78433232   -0.02467739   -1.76017689      11
Cr     1.80050177   -0.01392189    1.75211887      12
Cr    -1.89262118    0.03915259    1.82127223      13
Co    -1.82167919   -1.76569703    0.05057077      14
Ni    -1.78686528    1.71474686   -0.00508436      15
Ni    -0.02722740   -1.67583881    1.73967595      16
Co    -0.04718389    1.62951513    1.75434028      17
Ni     1.70874800   -0.02311860   -1.77745699      18
