          18
Lattice="  24.8920   0.0000   0.0000   0.0000  24.8920   0.0000   0.0000   0.0000  24.8920 " ConfE="      -5922.4043" DelE="          0.0000"
Co     0.04969693   -3.38027538    0.01217921       1
Ni    -3.48450221    0.04167489   -0.02029251       2
Ni     0.08477775    3.59545848   -0.03873442       3
Ni     3.62355282    0.05599948   -0.00549661       4
Co     0.08521853    0.09254927    3.52616388       5
Ni     0.04073778    0.04783443   -3.57839793       6
Cr     0.08391858   -1.68956731    1.76567046       7
Ni     0.02957759   -1.68410057   -1.75947565       8
Ni    -1.71822037    0.03324798    1.72554714       9
Co    -1.71218887    0.05285801   -1.73371001      10
Co     1.85026601   -1.67291330    0.01196556      11
Cr    -1.73026734    1.86083439   -0.03712821      12
Ni     1.83636906    1.78687733   -0.05296693      13
Cr     1.83625880    0.04566726    1.82012524      14
Cr     1.91442881   -0.07943740   -1.87729914      15
Ni     0.05844761    1.82773198    1.73922051      16
Cr     0.05433717    1.73465984   -1.76910478      17
Cr     0.00000000    0.00000000    0.00000000      18
          18
Lattice="  24.8920   0.0000   0.0000   0.0000  24.8920   0.0000   0.0000   0.0000  24.8920 " ConfE="      -5921.8765" DelE="          0.5278"
Co     0.06417606   -3.40196287   -0.01575084       1
Ni    -3.43528275    0.04469233   -0.01141441       2
Ni     0.07722512    3.60056568   -0.03832325       3
Ni     3.62409689    0.04785228   -0.01429004       4
Co     0.09842883    0.11472593    3.57970847       5
Ni     0.04018285    0.04548560   -3.62053148       6
Cr     0.12185725   -1.72707780    1.96703333       7
Ni     0.06190249   -1.72847512   -1.89591112       8
Ni    -1.75636744    0.11993133    1.88487334       9
Co    -1.72563255    0.02774031   -1.80945420      10
Co     1.75867606   -1.63953429    0.02177081      11
Cr    -1.71240182    1.82092244   -0.02472984      12
Ni     1.80442052    1.77672250   -0.05779306      13
Cr     1.72563525    0.01394717    1.67169731      14
Cr     1.77669874   -0.08224096   -1.74061598      15
Ni     0.04374616    1.78478509    1.71071436      16
Cr    -0.00055601    1.59849572   -1.67116671      17
Cr    -0.84389573   -0.94482139    0.08346110      18
          18
Lattice="  24.8920   0.0000   0.0000   0.0000  24.8920   0.0000   0.0000   0.0000  24.8920 " ConfE="      -5922.5685" DelE="         -0.1642"
Co     0.09064887   -3.45357140   -0.01531609       1
Ni    -3.51668161    0.07665937   -0.02431658       2
Ni     0.09266330    3.60841593   -0.04207471       3
Ni     3.63656484    0.05248987   -0.00345253       4
Co     0.09171663    0.10103440    3.56378308       5
Ni     0.04922924    0.05842482   -3.60345336       6
Cr     0.09507074   -1.65165249    1.75149615       7
Ni     0.05940995   -1.64475824   -1.74775217       8
Ni    -1.67796160    0.07006018    1.72128749       9
Co    -1.67261579    0.09552642   -1.71919929      10
Co     1.75250452   -1.59158672    0.05411601      11
Cr    -1.67206688    1.80014944   -0.06857815      12
Ni     1.82100170    1.76236497   -0.05977727      13
Cr     1.82902202    0.03383801    1.80965002      14
Cr     1.90519642   -0.05233607   -1.86437612      15
Ni     0.08080858    1.78672767    1.70192344      16
Cr     0.07940506    1.71057010   -1.74542463      17
Cr    -1.69339728   -1.67233266   -0.00466048      18
