          18
Lattice="  24.8920   0.0000   0.0000   0.0000  24.8920   0.0000   0.0000   0.0000  24.8920 " ConfE="      -5945.5732" DelE="          0.0000"
Co    -3.47217962   -0.05594342   -0.11232477       1
Co     0.04729466   -0.08371163    3.41819378       2
Cr     3.57621131   -0.07202983   -0.09665627       3
Cr     0.11662011   -0.11182240   -3.65022218       4
Co     0.09209713    3.47249111   -0.08857447       5
Cr     0.11973170   -3.58716248   -0.11904491       6
Co    -1.65571334    1.68428911   -0.09261683       7
Ni    -1.71232747   -1.79232969   -0.05304486       8
Co     0.07276258    1.66684192    1.69326192       9
Cr     0.00679428   -1.74647859    1.73431025      10
Co    -1.70884677   -0.04739144   -1.90428237      11
Co     1.87253610   -0.05501482    1.70334012      12
Co     1.84752794   -0.09899955   -1.86349975      13
Co     0.08504503    1.66529888   -1.88817952      14
Ni     0.03507464   -1.82497442   -1.85774577      15
Cr     1.84975004    1.69020110   -0.14002815      16
Co     1.81425258   -1.81285204   -0.07690505      17
Cr     0.00000000    0.00000000    0.00000000      18
          18
Lattice="  24.8920   0.0000   0.0000   0.0000  24.8920   0.0000   0.0000   0.0000  24.8920 " ConfE="      -5944.9801" DelE="          0.5931"
Co    -3.42937727   -0.06738346   -0.09681217       1
Co     0.05656428   -0.06696947    3.43787796       2
Cr     3.55301080   -0.06835770   -0.08717332       3
Cr     0.09112153   -0.11512913   -3.61708710       4
Co     0.11361540    3.52453729   -0.09832188       5
Cr     0.15733926   -3.66478401   -0.17974482       6
Co    -1.66173451    1.81476397   -0.14143295       7
Ni    -1.69663999   -1.92110070   -0.10039825       8
Co     0.12865044    1.83523904    1.74307403       9
Cr     0.11038506   -1.89504821    1.71608729      10
Co    -1.66903753   -0.04940217   -1.80071498      11
Co     1.74656736   -0.03984847    1.66202271      12
Co     1.84698375   -0.10521129   -1.86219751      13
Co     0.09482944    1.62146754   -1.82321555      14
Ni     0.04436879   -1.82429449   -1.83839176      15
Cr     1.75869440    1.60152502   -0.13268009      16
Co     1.77604962   -1.79244805   -0.07370670      17
Cr    -0.98086015    0.02621227    1.00708183      18
          18
Lattice="  24.8920   0.0000   0.0000   0.0000  24.8920   0.0000   0.0000   0.0000  24.8920 " ConfE="      -5945.4700" DelE="          0.1031"
Co    -3.49550192   -0.06244933   -0.11552400       1
Co     0.08331593   -0.06676328    3.49171943       2
Cr     3.58188069   -0.07170290   -0.10041674       3
Cr     0.11181087   -0.11135801   -3.64499555       4
Co     0.09749207    3.49195483   -0.09166511       5
Cr     0.14595802   -3.60868909   -0.15026901       6
Co    -1.64374303    1.67388979   -0.09511001       7
Ni    -1.65003630   -1.78820726   -0.09463894       8
Co     0.09834484    1.66197496    1.66362045       9
Cr     0.09461674   -1.76279078    1.67438578      10
Co    -1.69456877   -0.04553179   -1.86960260      11
Co     1.80000935   -0.06080208    1.66000687      12
Co     1.85521305   -0.10238672   -1.86415385      13
Co     0.09608345    1.61625256   -1.83529431      14
Ni     0.05855998   -1.81585161   -1.86407112      15
Cr     1.82835038    1.63354916   -0.17530927      16
Co     1.81683393   -1.80488336   -0.09366534      17
Cr    -1.58071569   -0.01536740    1.58942033      18
