          18
Lattice="  24.8920   0.0000   0.0000   0.0000  24.8920   0.0000   0.0000   0.0000  24.8920 " ConfE="      -5923.7208" DelE="          0.0000"
Ni    -3.48047638   -0.06661675   -0.05974947       1
Ni     0.01196083   -3.46824926   -0.03215163       2
Ni     3.61206322    0.04552569   -0.05190061       3
Ni     0.04115386    3.56592616   -0.06659420       4
Co     0.04397461    0.03802588   -3.61553328       5
Co     0.03778219    0.02633404    3.51144643       6
Ni    -1.72377719   -0.01439549   -1.80564918       7
Cr    -1.79319062    0.02676645    1.75578120       8
Ni     0.02876458   -1.73032636   -1.82453531       9
Ni     0.01444038   -1.71575129    1.72683761      10
Ni    -1.74197411    1.79405862   -0.04844042      11
Co     1.83944171   -1.74879200   -0.02799095      12
Ni     1.81076154    1.79550376   -0.04286123      13
Ni     0.03081223    1.80367106   -1.84266135      14
Co     0.02741231    1.73578394    1.74927604      15
Ni     1.79682973    0.00704825   -1.83083717      16
Cr     1.84211157    0.01513917    1.71308795      17
Co     0.00000000    0.00000000    0.00000000      18
          18
Lattice="  24.8920   0.0000   0.0000   0.0000  24.8920   0.0000   0.0000   0.0000  24.8920 " ConfE="      -5923.1446" DelE="          0.5762"
Ni    -3.46252323   -0.07697573   -0.06626262       1
Ni    -0.00662179   -3.38762358   -0.01460004       2
Ni     3.61768199    0.04192905   -0.04893402       3
Ni     0.03347430    3.55402157   -0.07320673       4
Co     0.06180213    0.06331818   -3.67807595       5
Co     0.03859281    0.04486648    3.57721790       6
Ni    -1.74592697    0.03779819   -1.95782744       7
Cr    -1.84212569    0.06158052    1.88884797       8
Ni     0.04704203   -1.71273267   -1.92980800       9
Ni     0.10746538   -1.74153760    1.92321675      10
Ni    -1.72368435    1.73216108   -0.06154938      11
Co     1.74981632   -1.66876022    0.00302634      12
Ni     1.77566067    1.74621577   -0.03809516      13
Ni     0.02469867    1.78151103   -1.84639721      14
Co    -0.00156943    1.62580098    1.69872925      15
Ni     1.76862162    0.01031359   -1.82497539      16
Cr     1.83485391    0.00585351    1.71807406      17
Co    -0.85789587   -0.73268095    0.08255088      18
          18
Lattice="  24.8920   0.0000   0.0000   0.0000  24.8920   0.0000   0.0000   0.0000  24.8920 " ConfE="      -5924.0037" DelE="         -0.2830"
Ni    -3.54265000   -0.01030660   -0.05113489       1
Ni     0.05506294   -3.50191569   -0.02850796       2
Ni     3.63395533    0.04720767   -0.05372629       3
Ni     0.04345884    3.56691788   -0.06629322       4
Co     0.04603399    0.04126175   -3.62535625       5
Co     0.04125704    0.02226127    3.53695539       6
Ni    -1.70875182    0.00665884   -1.79752306       7
Cr    -1.81704068    0.07048883    1.78392606       8
Ni     0.03650435   -1.71179636   -1.80715848       9
Ni     0.04835310   -1.64450257    1.70232979      10
Ni    -1.71128478    1.74608310   -0.04243053      11
Co     1.82056559   -1.71892731   -0.02532207      12
Ni     1.79913046    1.76619900   -0.03643377      13
Ni     0.03425717    1.79428290   -1.83447524      14
Co     0.02839661    1.66085136    1.71699411      15
Ni     1.78432850    0.00821763   -1.81480316      16
Cr     1.87608227    0.01741434    1.71477270      17
Co    -1.74609869   -1.73436079    0.01322461      18
