          18
Lattice="  24.8920   0.0000   0.0000   0.0000  24.8920   0.0000   0.0000   0.0000  24.8920 " ConfE="      -5940.9595" DelE="          0.0000"
Co    -0.02556944   -3.59476371    0.08121686       1
Co    -3.59377612   -0.02984405    0.08504569       2
Cr    -0.00863331   -0.02409068    3.60508865       3
Co     3.51508758   -0.03029741    0.07975878       4
Cr     0.01505336    3.54745267    0.05236370       5
Cr     0.00051629    0.00407905   -3.46743449       6
Ni    -1.75537973   -1.81458220    0.05684328       7
Cr    -1.61267369   -0.10546300    1.77154255       8
Cr     0.01157792   -1.81609432   -1.74546723       9
Cr    -1.79493393   -0.02870067   -1.66890939      10
Co     1.70138020   -1.79966914    0.01879439      11
Co    -1.78872267    1.75655115    0.06922048      12
Cr     1.53437592   -0.25370168    1.78507164      13
Co     0.00719595    1.79574179    1.82347310      14
Cr     1.77581305    1.77033095    0.08847632      15
Cr     1.80010441   -0.00809852   -1.72506891      16
Cr     0.01488848    1.86825228   -1.71694109      17
Co     0.00000000    0.00000000    0.00000000      18
          18
Lattice="  24.8920   0.0000   0.0000   0.0000  24.8920   0.0000   0.0000   0.0000  24.8920 " ConfE="      -5940.1091" DelE="          0.8505"
Co    -0.02039274   -3.50609789    0.10318275       1
Co    -3.70935781   -0.00870581    0.06847689       2
Cr    -0.00528897   -0.03744507    3.49264962       3
Co     3.62742746   -0.01210999    0.05293180       4
Cr     0.02755026    3.55086317    0.04697325       5
Cr    -0.00085206    0.00197222   -3.48183304       6
Ni    -1.94140764   -1.85406624    0.03452789       7
Cr    -1.91823920    0.03284825    1.74224292       8
Cr    -0.01048154   -1.70717727   -1.60990522       9
Cr    -1.73634660   -0.01747979   -1.49385535      10
Co     1.88685725   -1.80455529    0.00477958      11
Co    -1.80954724    1.74838452    0.07678366      12
Cr     1.86435191   -0.03413529    1.81830431      13
Co    -0.00647905    1.69003904    1.75411853      14
Cr     1.74621070    1.72477862    0.10313399      15
Cr     1.76398701   -0.02300029   -1.61758880      16
Cr    -0.00285472    1.71393733   -1.62776128      17
Co    -0.01578241   -0.93072692    1.00556913      18
          18
Lattice="  24.8920   0.0000   0.0000   0.0000  24.8920   0.0000   0.0000   0.0000  24.8920 " ConfE="      -5940.9076" DelE="          0.0519"
Co    -0.02481910   -3.66322336    0.09071813       1
Co    -3.58908896   -0.01847958    0.05863401       2
Cr    -0.02110458   -0.00788998    3.58348734       3
Co     3.53617963   -0.01477752    0.06496150       4
Cr     0.02493218    3.63943583    0.04820684       5
Cr     0.00809227    0.00273934   -3.47854685       6
Ni    -1.77467394   -1.85126139    0.06952264       7
Cr    -1.58321352    0.01220243    1.64834587       8
Cr     0.02238428   -1.86438402   -1.64962242       9
Cr    -1.52845981   -0.02371738   -1.48519100      10
Co     1.68782305   -1.78280926    0.04080292      11
Co    -1.75478996    1.77270679    0.05879789      12
Cr     1.54972914   -0.06068759    1.66351943      13
Co    -0.00124602    1.81295908    1.79515317      14
Cr     1.74758541    1.81198687    0.09483884      15
Cr     1.60415019    0.01016431   -1.54450682      16
Cr     0.01180410    1.90835250   -1.68332680      17
Co    -0.04039564   -1.84716527    1.83815092      18
