          18
Lattice="  24.8920   0.0000   0.0000   0.0000  24.8920   0.0000   0.0000   0.0000  24.8920 " ConfE="      -5927.2155" DelE="          0.0000"
Cr     0.07061502    0.15072883    3.07847882       1
Co    -0.07902237    3.37600292   -0.11932782       2
Co    -0.05655933   -0.12624585   -3.76161667       3
Co    -0.06977829   -3.73230375   -0.17348701       4
Cr    -3.62132588   -0.10330649   -0.15690372       5
Cr     3.49546118   -0.12358557   -0.20343142       6
Cr    -1.84463735   -0.03563609    1.59938315       7
Co     1.79581896   -0.10943139    1.56907304       8
Cr    -1.81232533    1.68655576   -0.12931572       9
Ni     1.73015624    1.68675425   -0.15526436      10
Cr     0.01888108   -1.93799182    1.58624059      11
Ni    -0.02120996    1.64130386   -1.97079690      12
Cr    -0.03761755   -1.88883018   -1.90434289      13
Cr    -1.78448190   -1.92959092   -0.16752529      14
Co     1.71796863   -1.91034324   -0.19333743      15
Ni    -1.77567445   -0.12020167   -1.91858895      16
Co     1.73827359   -0.11530665   -1.94018266      17
Cr     0.00000000    0.00000000    0.00000000      18
          18
Lattice="  24.8920   0.0000   0.0000   0.0000  24.8920   0.0000   0.0000   0.0000  24.8920 " ConfE="      -5926.6425" DelE="          0.5730"
Cr     0.01690358   -0.01882207    3.29965648       1
Co    -0.07779518    3.34104228   -0.11444431       2
Co    -0.05006347   -0.11187611   -3.76070708       3
Co    -0.07055792   -3.71907986   -0.17069058       4
Cr    -3.70775007   -0.15469872   -0.18457376       5
Cr     3.57821738   -0.14028739   -0.20371777       6
Cr    -1.98311168   -0.10573370    1.65529849       7
Co     1.86439455   -0.13713282    1.60965742       8
Cr    -1.97188206    1.64159476   -0.19152828       9
Ni     1.85291290    1.68951405   -0.21701872      10
Cr     0.05088879   -1.87930459    1.52057971      11
Ni    -0.02817003    1.60256289   -1.89596001      12
Cr    -0.01431855   -1.82493276   -1.85682725      13
Cr    -1.70299123   -1.76125013   -0.15750696      14
Co     1.70114553   -1.84897494   -0.18206715      15
Ni    -1.79458538   -0.10953624   -1.93388320      16
Co     1.74781560   -0.10839239   -1.92101826      17
Cr    -0.03791310    0.77133602    0.73676148      18
          18
Lattice="  24.8920   0.0000   0.0000   0.0000  24.8920   0.0000   0.0000   0.0000  24.8920 " ConfE="      -5927.5556" DelE="         -0.3401"
Cr     0.00077136   -0.20626409    3.39306977       1
Co    -0.06628980    3.42401015   -0.14970314       2
Co    -0.05314982   -0.12472179   -3.77959607       3
Co    -0.06606380   -3.73168667   -0.17800419       4
Cr    -3.65885939   -0.09365830   -0.18057671       5
Cr     3.54599340   -0.11570389   -0.21755512       6
Cr    -1.82668897   -0.13338607    1.55026263       7
Co     1.76491675   -0.12868204    1.56265183       8
Cr    -1.81238968    1.61498419   -0.16646957       9
Ni     1.71673659    1.62797209   -0.20022871      10
Cr     0.06733406   -1.68780990    1.33197426      11
Ni    -0.02571455    1.60814115   -1.94356043      12
Cr    -0.01325940   -1.83340128   -1.85153232      13
Cr    -1.78673511   -1.89286817   -0.20676369      14
Co     1.74902964   -1.88461695   -0.22605159      15
Ni    -1.78404204   -0.12973554   -1.93567294      16
Co     1.75698082   -0.12061339   -1.95971471      17
Cr    -0.00618416    1.48923786    1.53409587      18
