          18
Lattice="  24.8920   0.0000   0.0000   0.0000  24.8920   0.0000   0.0000   0.0000  24.8920 " ConfE="      -5943.6167" DelE="          0.0000"
Ni     0.01543591    0.00719720   -3.42968286       1
Co     0.06297180    3.54259000    0.06066829       2
Co     0.00157622    0.00355056    3.64013226       3
Co    -0.00887521   -3.55190974    0.04751069       4
Cr     3.65049763   -0.02010864   -0.00973742       5
Cr    -3.54322131    0.00696552    0.02769715       6
Ni     1.79013500    1.74903594    0.03965955       7
Ni    -1.73453621    1.75124517    0.04607346       8
Ni     1.78887652   -0.00863384   -1.72183090       9
Ni     0.01093472    1.74455020    1.85177225      10
Co    -1.78756104   -0.03925654   -1.70210430      11
Ni     1.78247422   -1.77435644    0.03567431      12
Ni     0.00213727   -1.75851292    1.82322056      13
Ni     1.80864985    0.00750577    1.83191238      14
Cr    -0.02249866   -1.88159339   -1.74118138      15
Co    -1.79790021   -1.77479705    0.04944332      16
Cr    -1.79028898   -0.01968971    1.81922634      17
Ni     0.00000000    0.00000000    0.00000000      18
          18
Lattice="  24.8920   0.0000   0.0000   0.0000  24.8920   0.0000   0.0000   0.0000  24.8920 " ConfE="      -5939.2167" DelE="          4.4001"
Ni    -0.00516919   -0.01733763   -3.47621283       1
Co    -0.05365383    3.59235749   -0.17733867       2
Co    -0.01068312   -0.01927374    3.67339795       3
Co    -0.02214156   -3.58000464    0.04765782       4
Cr     3.65367010   -0.06221518   -0.04846571       5
Cr    -3.57153013    0.01046617    0.01969172       6
Ni     1.71055532    1.72056303   -0.01060361       7
Ni    -1.75775926    1.73378403    0.00828614       8
Ni     1.68386830   -0.02450425   -1.69987282       9
Ni     0.95412243    3.41393247    1.92529682      10
Co    -1.67909998   -0.04777638   -1.63311417      11
Ni     1.73805638   -1.75692521    0.03501512      12
Ni    -0.00462192   -1.75727658    1.80994161      13
Ni     1.83955758   -0.01725869    1.83216895      14
Cr    -0.04500482   -1.87479438   -1.72092392      15
Co    -1.76671856   -1.73089298    0.07708203      16
Cr    -1.87730556   -0.09729363    1.79331953      17
Ni    -0.10823218    1.38240553    1.66171297      18
          18
Lattice="  24.8920   0.0000   0.0000   0.0000  24.8920   0.0000   0.0000   0.0000  24.8920 " ConfE="      -5943.2817" DelE="          0.3350"
Ni     0.01192580    0.00577454   -3.43610875       1
Co     0.06926793    3.50431181    0.01774770       2
Co     0.01097269    0.00671650    3.63576535       3
Co    -0.01031633   -3.55350524    0.04816393       4
Cr     3.63978939   -0.01383292   -0.00448547       5
Cr    -3.54135380    0.01288704    0.03118373       6
Ni     0.02413435    0.02964142    0.00855674       7
Ni    -1.72329013    1.75893946    0.05202592       8
Ni     1.78289957    0.00701231   -1.71749631       9
Ni     1.80540651    3.53296076    1.83303644      10
Co    -1.77642917   -0.03036632   -1.69292817      11
Ni     1.78245350   -1.77392307    0.03582724      12
Ni     0.00432115   -1.75948098    1.82432544      13
Ni     1.81159199    0.01430543    1.82412408      14
Cr    -0.01986956   -1.86856931   -1.73231361      15
Co    -1.79228986   -1.76727520    0.05380121      16
Cr    -1.78406848   -0.01640586    1.81659319      17
Ni     0.03244704    1.76112649    1.85431219      18
