          18
Lattice="  24.8920   0.0000   0.0000   0.0000  24.8920   0.0000   0.0000   0.0000  24.8920 " ConfE="      -5943.2332" DelE="          0.0000"
Ni     3.46034859    0.02324210    0.00974432       1
Ni    -0.04192755    3.57656240    0.03450147       2
Co    -0.03900354    0.01174933   -3.50657967       3
Co    -0.03289166   -3.48776993    0.04913898       4
Co    -0.05878073    0.05896721    3.61713702       5
Cr    -3.66204994    0.04932175    0.02697844       6
Ni     1.74865540    1.77288480    0.00149938       7
Ni    -0.02819630    1.77018852   -1.74882640       8
Cr     1.67210258   -1.70624141   -0.00136262       9
Ni    -0.05215819   -1.71940703    1.83316963      10
Ni    -1.82476380   -1.73470861    0.04392267      11
Cr    -0.01631179   -1.68502218   -1.76564954      12
Ni    -0.02848177    1.79661899    1.80041671      13
Cr     1.73884158   -0.01589181    1.86055951      14
Cr    -1.82243950    0.04233435    1.80929422      15
Co    -1.86344901    0.00354026   -1.75594192      16
Cr    -1.82450919    1.74481250    0.03490144      17
Co     0.00000000    0.00000000    0.00000000      18
          18
Lattice="  24.8920   0.0000   0.0000   0.0000  24.8920   0.0000   0.0000   0.0000  24.8920 " ConfE="      -5942.4655" DelE="          0.7676"
Ni     3.46075339    0.02676047    0.01097344       1
Ni    -0.05371705    3.62380641    0.04354204       2
Co    -0.05305627    0.02340752   -3.50100354       3
Co    -0.04356532   -3.50716987    0.06601274       4
Co    -0.05233289    0.06072430    3.61574966       5
Cr    -3.67544862    0.04704969    0.01994920       6
Ni     1.75158639    1.83845891    0.01948016       7
Ni    -0.06040798    1.87183750   -1.74659118       8
Cr     1.75108945   -1.83740325    0.16636408       9
Ni    -0.05889230   -1.69051461    1.79497566      10
Ni    -1.80108898   -1.71705183    0.04741192      11
Cr    -0.18357338   -1.88727387   -1.84218961      12
Ni    -0.02797196    1.77131924    1.75088235      13
Cr     1.69080828   -0.00947075    1.76037388      14
Cr    -1.80000209    0.04186998    1.78532138      15
Co    -1.77597388    0.01750168   -1.70409498      16
Cr    -1.76349984    1.67408221    0.01303568      17
Co     0.97448401   -0.16617626   -1.08297436      18
          18
Lattice="  24.8920   0.0000   0.0000   0.0000  24.8920   0.0000   0.0000   0.0000  24.8920 " ConfE="      -5942.7717" DelE="          0.4615"
Ni     3.51810910    0.02540295    0.04018721       1
Ni    -0.05232702    3.59952729    0.04540965       2
Co    -0.06670642    0.01846360   -3.54035009       3
Co    -0.03947561   -3.49977782    0.05099829       4
Co    -0.05827099    0.05878112    3.62127850       5
Cr    -3.69140141    0.05107160    0.03084443       6
Ni     1.73076016    1.77556212    0.03761835       7
Ni    -0.06066716    1.77598828   -1.71119851       8
Cr     1.66164879   -1.69551579    0.02118042       9
Ni    -0.05140213   -1.67900269    1.79030470      10
Ni    -1.80386003   -1.70256245    0.04715853      11
Cr    -0.05547511   -1.67803942   -1.73496594      12
Ni    -0.03896406    1.76747754    1.76788378      13
Cr     1.72204041   -0.02387617    1.80541058      14
Cr    -1.82199531    0.04845837    1.79337901      15
Co    -1.82905751    0.00955706   -1.72383335      16
Cr    -1.82008438    1.71331309    0.04526359      17
Co     1.62081956   -0.04517320   -1.62987923      18
