          18
Lattice="  24.8920   0.0000   0.0000   0.0000  24.8920   0.0000   0.0000   0.0000  24.8920 " ConfE="      -5940.8213" DelE="          0.0000"
Ni     0.05429180    3.66747187    0.03250411       1
Co     3.51181828    0.02949505    0.01882683       2
Cr    -0.02118633   -3.58444658   -0.01373615       3
Cr    -3.53379500    0.07815750   -0.04016419       4
Cr     0.02829820    0.03983273   -3.52475556       5
Co    -0.02098773    0.05515809    3.53187422       6
Cr     0.26385988    1.86166675   -1.53403519       7
Cr     0.25477961    1.78811287    1.59338085       8
Co     1.76752486    0.03225118   -1.73706112       9
Co     1.78544459   -0.02515948    1.74037065      10
Co    -1.76429383    1.83864013   -0.01161343      11
Cr     1.72851884   -1.81965651   -0.02062304      12
Ni    -1.79533558   -1.77816308    0.00324899      13
Cr    -1.77656283    0.08593554   -1.80158730      14
Cr    -1.75516951    0.05743731    1.76769781      15
Co    -0.02221246   -1.74344919   -1.78174512      16
Ni    -0.00258050   -1.80503061    1.80959603      17
Cr     0.00000000    0.00000000    0.00000000      18
          18
Lattice="  24.8920   0.0000   0.0000   0.0000  24.8920   0.0000   0.0000   0.0000  24.8920 " ConfE="      -5940.3453" DelE="          0.4760"
Ni     0.09382643    3.58346279    0.03881721       1
Co     3.42942191    0.00594495    0.02415198       2
Cr    -0.00268205   -3.58339966   -0.01058380       3
Cr    -3.50215866    0.09327670   -0.06953006       4
Cr    -0.03199083    0.01434859   -3.60946700       5
Co    -0.03116302    0.02191463    3.62561114       6
Cr     0.10545562    1.92803082   -1.84584245       7
Cr     0.14986071    1.84058629    1.89798611       8
Co     1.79131909   -0.01623989   -1.90909069       9
Co     1.79230256   -0.09313420    1.90359189      10
Co    -1.67052617    1.83888170    0.00620901      11
Cr     1.69408392   -1.79649619   -0.03480835      12
Ni    -1.73149618   -1.75092326    0.01039167      13
Cr    -1.62567425    0.10732194   -1.65289732      14
Cr    -1.62472852    0.11795525    1.63129750      15
Co     0.01871734   -1.66084397   -1.73300882      16
Ni     0.01537094   -1.76318983    1.79069300      17
Cr     0.73158823    0.64501045   -0.00905386      18
          18
Lattice="  24.8920   0.0000   0.0000   0.0000  24.8920   0.0000   0.0000   0.0000  24.8920 " ConfE="      -5940.3569" DelE="          0.4644"
Ni     0.09788644    3.56474900    0.03558753       1
Co     3.42815817    0.01618628    0.02096320       2
Cr    -0.00071324   -3.58761927   -0.00607525       3
Cr    -3.48586393    0.08946194   -0.07223832       4
Cr    -0.03542960    0.00529520   -3.61386636       5
Co    -0.03656600    0.01554180    3.62889792       6
Cr     0.07908314    1.94460805   -1.89956215       7
Cr     0.13090255    1.85195776    1.94528959       8
Co     1.75404209   -0.02217178   -1.88594816       9
Co     1.76763545   -0.08377822    1.87546832      10
Co    -1.67343490    1.85250844    0.00098485      11
Cr     1.67836106   -1.79350013   -0.03147595      12
Ni    -1.72116242   -1.76009389    0.01067991      13
Cr    -1.57581193    0.10292650   -1.62022985      14
Cr    -1.59150967    0.12950107    1.59318402      15
Co     0.00914819   -1.71221994   -1.75914721      16
Ni     0.00942485   -1.77624926    1.80187459      17
Cr     0.80940014    0.86192085   -0.00803423      18
