          18
Lattice="  24.8920   0.0000   0.0000   0.0000  24.8920   0.0000   0.0000   0.0000  24.8920 " ConfE="      -5930.0710" DelE="          0.0000"
Cr     0.03046960    0.08350729    3.46105606       1
Ni     0.01424574    3.45361080    0.00857568       2
Ni    -0.01218572   -0.05272703   -3.59526501       3
Co    -0.00760321   -3.61660672   -0.06126927       4
Co    -3.54810549   -0.02470763   -0.01836146       5
Cr     3.53552276   -0.02935155    0.04470243       6
Cr    -1.74434109   -0.04689887    1.71459726       7
Ni     1.76198378   -0.03556094    1.74405444       8
Cr    -1.78351592    1.72736596    0.03594342       9
Co     1.80272823    1.70493642   -0.00984993      10
Co    -0.00105064   -1.85732782    1.74722726      11
Co    -0.04223170    1.75322590   -1.81612707      12
Ni    -0.01014537   -1.80383405   -1.80331004      13
Co    -1.77789383   -1.82622869    0.00151526      14
Cr     1.74652955   -1.83706347   -0.00153417      15
Ni    -1.80742897   -0.02415758   -1.78756879      16
Ni     1.78228039   -0.04080897   -1.79879279      17
Ni     0.00000000    0.00000000    0.00000000      18
          18
Lattice="  24.8920   0.0000   0.0000   0.0000  24.8920   0.0000   0.0000   0.0000  24.8920 " ConfE="      -5929.5593" DelE="          0.5117"
Cr     0.05147681    0.11371121    3.41286918       1
Ni     0.01347870    3.42201415    0.00924965       2
Ni    -0.01603169   -0.05168973   -3.59740205       3
Co    -0.01360422   -3.61608559   -0.04669365       4
Co    -3.58059261   -0.02705975   -0.01503854       5
Cr     3.58381630   -0.02882458    0.03101125       6
Cr    -1.88839122   -0.09649840    1.75878079       7
Ni     1.90465786   -0.05660473    1.78443326       8
Cr    -1.93635522    1.76200435   -0.03174088       9
Co     1.94175843    1.73473455   -0.03383202      10
Co     0.01460426   -1.80194826    1.72857170      11
Co    -0.04224913    1.72348830   -1.77033375      12
Ni    -0.02050668   -1.77523611   -1.76666184      13
Co    -1.75974543   -1.77078961    0.02669773      14
Cr     1.68927287   -1.75825126    0.01626999      15
Ni    -1.81458299   -0.02012050   -1.77069379      16
Ni     1.76878429   -0.03057614   -1.76811827      17
Ni    -0.01821029    0.57415747    0.60529948      18
          18
Lattice="  24.8920   0.0000   0.0000   0.0000  24.8920   0.0000   0.0000   0.0000  24.8920 " ConfE="      -5930.2382" DelE="         -0.1672"
Cr     0.04509849    0.01423815    3.53723969       1
Ni     0.00825825    3.51559418   -0.03851135       2
Ni    -0.01259048   -0.06364683   -3.59743121       3
Co    -0.00888706   -3.63910930   -0.05728561       4
Co    -3.58109419   -0.03544009   -0.03367858       5
Cr     3.57860223   -0.04572292    0.03602824       6
Cr    -1.72280796   -0.10740516    1.62109718       7
Ni     1.76955924   -0.06824798    1.70398460       8
Cr    -1.77537636    1.68960309   -0.03452956       9
Co     1.79107340    1.68704713   -0.04203148      10
Co     0.01049959   -1.81122761    1.71156150      11
Co    -0.04879727    1.72386760   -1.76556165      12
Ni    -0.01084163   -1.79685114   -1.76899011      13
Co    -1.75013266   -1.78763329    0.01065457      14
Cr     1.72529046   -1.82072604   -0.00713987      15
Ni    -1.78910792   -0.03956369   -1.76657034      16
Ni     1.75919707   -0.05558436   -1.75868159      17
Ni     0.01366210    1.67974425    1.67670106      18
