          18
Lattice="  24.8920   0.0000   0.0000   0.0000  24.8920   0.0000   0.0000   0.0000  24.8920 " ConfE="      -5924.4224" DelE="          0.0000"
Cr     3.51049974   -0.01963415    0.07632035       1
Co    -0.00243703   -0.00617822   -3.41599575       2
Co     0.00200780    0.00125813    3.62437675       3
Cr    -3.56908350    0.00685913    0.02123844       4
Cr    -0.02376095    3.56066737    0.04472311       5
Cr    -0.05806787   -3.45198816   -0.05463434       6
Ni     1.75367138   -1.71450196   -0.00369823       7
Ni     0.00490056    1.77540662   -1.73700608       8
Co     1.72582880    1.78157471    0.04753550       9
Cr     0.01895304   -1.73253417   -1.80679402      10
Ni    -1.79430339    0.01068019    1.80867663      11
Ni    -0.02974492    1.77965701    1.83769691      12
Co     1.73240160   -0.00504798    1.84749105      13
Cr    -1.81956314    0.02664529   -1.78794542      14
Co    -1.80399029   -1.73383954   -0.01552020      15
Cr    -1.76426601    1.77033003    0.01689966      16
Cr     0.01819098   -1.75595625    1.78098601      17
Ni     0.00000000    0.00000000    0.00000000      18
          18
Lattice="  24.8920   0.0000   0.0000   0.0000  24.8920   0.0000   0.0000   0.0000  24.8920 " ConfE="      -5923.7920" DelE="          0.6304"
Cr     3.41662930   -0.01022812    0.05755677       1
Co    -0.01608835    0.02882376   -3.40566253       2
Co     0.00979327   -0.00080147    3.63537798       3
Cr    -3.57680513    0.02036454    0.01249693       4
Cr    -0.04984038    3.64364907    0.07244303       5
Cr    -0.05478047   -3.54286466   -0.01131531       6
Ni     1.79251784   -1.89778742    0.07621469       7
Ni    -0.04815848    1.94484360   -1.76542428       8
Co     1.70765060    1.92510834    0.09197931       9
Cr    -0.05288024   -1.93793465   -1.79715890      10
Ni    -1.74973209    0.01709661    1.77108265      11
Ni    -0.03318268    1.78117802    1.82477042      12
Co     1.67791174   -0.01961717    1.77765884      13
Cr    -1.70460591    0.02383208   -1.73843173      14
Co    -1.72856155   -1.69792880   -0.02096747      15
Cr    -1.71072831    1.73275057    0.00672980      16
Cr     0.02138467   -1.71181818    1.71664653      17
Ni     0.81473834   -0.04069393   -0.87324923      18
          18
Lattice="  24.8920   0.0000   0.0000   0.0000  24.8920   0.0000   0.0000   0.0000  24.8920 " ConfE="      -5924.3141" DelE="          0.1082"
Cr     3.54098176   -0.02911925    0.10821594       1
Co    -0.04812886    0.02133456   -3.48605514       2
Co     0.00090873    0.00594091    3.64873719       3
Cr    -3.59967801    0.02071526    0.03157958       4
Cr    -0.04604740    3.59605581    0.06297036       5
Cr    -0.05836938   -3.51799500   -0.02157798       6
Ni     1.71385266   -1.72818412    0.03870997       7
Ni    -0.02316552    1.76854826   -1.70081097       8
Co     1.69383477    1.77091559    0.07568808       9
Cr    -0.05347169   -1.73748316   -1.71423341      10
Ni    -1.77670704    0.02370538    1.79433545      11
Ni    -0.04251171    1.76494835    1.82332341      12
Co     1.68031618   -0.01544553    1.81275326      13
Cr    -1.76048036    0.03052984   -1.74164793      14
Co    -1.72981039   -1.66863159   -0.01217851      15
Cr    -1.75764438    1.73994038    0.02309088      16
Cr     0.01067132   -1.70214512    1.74367411      17
Ni     1.72913583    0.00606800   -1.69673786      18
