          18
Lattice="  24.8920   0.0000   0.0000   0.0000  24.8920   0.0000   0.0000   0.0000  24.8920 " ConfE="      -5939.7971" DelE="          0.0000"
Co     0.03372851    3.50446010   -0.02336195       1
Cr    -0.00257909   -0.02488177   -3.49827772       2
Ni    -0.02103864   -0.01825655    3.57070826       3
Ni     0.00220647   -3.58643799    0.05705175       4
Ni     3.54558768   -0.05331496   -0.00202633       5
Co    -3.55735514   -0.03119802    0.00922716       6
Ni    -1.73741095    1.73966309    0.01848783       7
Cr    -1.66944023   -0.01696608   -1.73216110       8
Ni     1.74274949   -1.80828835    0.01561501       9
Cr     1.71375179    1.76568536   -0.02111384      10
Co     1.70366034    0.03826827   -1.72656546      11
Cr    -1.77488178   -0.08786026    1.77159606      12
Co    -1.77658994   -1.78568159    0.03042721      13
Co     0.02736460    1.74260709    1.81298010      14
Co    -0.01190574   -1.79723441   -1.78997431      15
Co    -0.02071958   -1.78014612    1.82441499      16
Cr     1.76617494   -0.03797525    1.76764335      17
Co     0.00000000    0.00000000    0.00000000      18
          18
Lattice="  24.8920   0.0000   0.0000   0.0000  24.8920   0.0000   0.0000   0.0000  24.8920 " ConfE="      -5939.0464" DelE="          0.7507"
Co     0.02997886    3.48005244   -0.02619425       1
Cr     0.01193123   -0.02572506   -3.45771049       2
Ni    -0.02477163   -0.00782974    3.57387568       3
Ni     0.00265625   -3.59518242    0.05784007       4
Ni     3.59813677   -0.07756435    0.02802864       5
Co    -3.63300391   -0.04997171    0.04572593       6
Ni    -1.90525824    1.74002361    0.10301921       7
Cr    -1.81865997   -0.07243224   -1.69128982       8
Ni     1.71463835   -1.77631754    0.02883481       9
Cr     1.90340866    1.76578385    0.03349602      10
Co     1.93127028   -0.10020747   -1.78072137      11
Cr    -1.71276091   -0.09279463    1.70106901      12
Co    -1.75592840   -1.74536823    0.03389975      13
Co     0.03193934    1.68221422    1.70692860      14
Co    -0.00548440   -1.69452490   -1.75823963      15
Co    -0.02672206   -1.75406387    1.80632529      16
Cr     1.69084776   -0.03050460    1.69825893      17
Co     0.05030541    1.00841335   -0.98874866      18
          18
Lattice="  24.8920   0.0000   0.0000   0.0000  24.8920   0.0000   0.0000   0.0000  24.8920 " ConfE="      -5939.6144" DelE="          0.1827"
Co     0.03443123    3.55735133    0.01557811       1
Cr     0.00359575   -0.05455082   -3.55684916       2
Ni    -0.02147636   -0.01828767    3.59693544       3
Ni     0.00235971   -3.60049428    0.06305083       4
Ni     3.56196203   -0.06663470    0.01791977       5
Co    -3.57668153   -0.03976382    0.01816936       6
Ni    -1.71465821    1.69421525    0.03965266       7
Cr    -1.65818723   -0.08819472   -1.67925796       8
Ni     1.70254151   -1.77957296    0.03724506       9
Cr     1.72136457    1.71634706    0.03336525      10
Co     1.71603737   -0.01535341   -1.68503709      11
Cr    -1.71238762   -0.11223269    1.73119465      12
Co    -1.74944489   -1.75829947    0.03848633      13
Co     0.04256670    1.70399711    1.77240623      14
Co    -0.02376428   -1.75484192   -1.77129192      15
Co    -0.02895937   -1.75394197    1.81989506      16
Cr     1.69790142   -0.03933851    1.73785131      17
Co     0.02210494    1.71582556   -1.72429792      18
