          18
Lattice="  24.8920   0.0000   0.0000   0.0000  24.8920   0.0000   0.0000   0.0000  24.8920 " ConfE="      -5938.1123" DelE="          0.0000"
Co    -0.04235016    0.01715329   -3.50901020       1
Co    -0.00292252    3.53990227   -0.01172424       2
Ni    -3.51798658    0.05295218    0.00541172       3
Cr    -0.01699391    0.00742316    3.56598294       4
Co    -0.01182374   -3.57290632    0.03265334       5
Co     3.55750017    0.02780754   -0.00098634       6
Cr    -1.57155179    1.80343410   -0.11968374       7
Cr    -1.72723557    0.07772996   -1.81521324       8
Co     1.72742083    0.07730698   -1.76621235       9
Cr     1.67538257    1.80587314   -0.04000702      10
Ni    -1.78392316    0.01242034    1.77157077      11
Ni    -0.01655813   -1.78482797   -1.74761770      12
Ni     1.76561063   -1.76386616    0.02137022      13
Ni     1.77570825    0.02932229    1.77981774      14
Cr    -1.74620224   -1.77173805    0.01283250      15
Co    -0.03362627    1.79072926    1.81577309      16
Co    -0.00159305   -1.78385125    1.81890910      17
Ni     0.00000000    0.00000000    0.00000000      18
          18
Lattice="  24.8920   0.0000   0.0000   0.0000  24.8920   0.0000   0.0000   0.0000  24.8920 " ConfE="      -5937.5080" DelE="          0.6043"
Co     0.00828233    0.05674969   -3.48335664       1
Co     0.00670097    3.51253210   -0.00540864       2
Ni    -3.57551639    0.03194958    0.01104537       3
Cr    -0.01065756    0.01546989    3.57581785       4
Co    -0.01527226   -3.56249115    0.02031541       5
Co     3.62189894    0.00720274    0.02320341       6
Cr    -1.88763266    1.89868356    0.08910915       7
Cr    -1.91686614    0.00203605   -1.91183030       8
Co     1.90970712    0.00663949   -1.79129060       9
Cr     1.86663137    1.80938983    0.02968836      10
Ni    -1.80222327    0.01590560    1.78554592      11
Ni    -0.01435816   -1.71549581   -1.72856325      12
Ni     1.75932730   -1.73015700    0.02238893      13
Ni     1.78231476    0.03188236    1.77289256      14
Cr    -1.67389527   -1.62749276    0.00520110      15
Co    -0.02612325    1.75001317    1.74861119      16
Co    -0.01714884   -1.72670915    1.76765113      17
Ni    -0.07255026    0.68957563   -0.72817508      18
          18
Lattice="  24.8920   0.0000   0.0000   0.0000  24.8920   0.0000   0.0000   0.0000  24.8920 " ConfE="      -5938.2531" DelE="         -0.1408"
Co    -0.04217530   -0.01719578   -3.57366859       1
Co     0.01077585    3.58994378    0.00815687       2
Ni    -3.56058330    0.04072204    0.03405967       3
Cr    -0.01772960    0.00331718    3.60556046       4
Co    -0.01783623   -3.57868524    0.03331663       5
Co     3.58462813    0.01681474    0.01746105       6
Cr    -1.57039852    1.69033436   -0.00612050       7
Cr    -1.74096236    0.01421536   -1.71394610       8
Co     1.75273130    0.03203539   -1.72885261       9
Cr     1.67618478    1.73178953    0.05152949      10
Ni    -1.76765449   -0.00079684    1.78254215      11
Ni    -0.01697590   -1.72677957   -1.71882145      12
Ni     1.72305581   -1.72465440    0.03626652      13
Ni     1.74504160    0.01688182    1.77909462      14
Cr    -1.67954151   -1.67038663    0.04110985      15
Co    -0.02222207    1.76298439    1.76001389      16
Co    -0.01313161   -1.76835104    1.81350160      17
Ni     0.03069116    1.75585552   -1.77446845      18
