          18
Lattice="  24.8920   0.0000   0.0000   0.0000  24.8920   0.0000   0.0000   0.0000  24.8920 " ConfE="      -5945.0018" DelE="          0.0000"
Ni     3.53910954   -0.04939192    0.00918504       1
Co     0.04427970    3.43678237   -0.01776832       2
Cr    -0.07028275   -0.04368581    3.56555442       3
Cr    -0.01459548   -0.03258461   -3.50435271       4
Co    -3.56115005   -0.04845978    0.01869886       5
Co    -0.01004532   -3.61485466    0.01972743       6
Ni    -0.00991488    1.71511341    1.75916069       7
Ni     1.76001559   -0.02412549    1.75955233       8
Co    -0.00480582    1.72224650   -1.76900305       9
Co     1.73616293   -0.03798491   -1.76447989      10
Cr    -1.84521789    1.67060920   -0.00643723      11
Cr     1.71469576   -1.84719496    0.00111093      12
Cr    -1.83290321   -0.04285720    1.75834928      13
Cr    -0.03407959   -1.81144044    1.78172087      14
Co    -1.79841089   -0.07212508   -1.77433991      15
Cr    -0.00364274   -1.80929340   -1.75450091      16
Co    -1.74592431   -1.81824643    0.00946437      17
Ni     0.00000000    0.00000000    0.00000000      18
          18
Lattice="  24.8920   0.0000   0.0000   0.0000  24.8920   0.0000   0.0000   0.0000  24.8920 " ConfE="      -5944.1324" DelE="          0.8693"
Ni     3.50538307   -0.03354792    0.02504695       1
Co     0.00325318    3.40560366   -0.00639584       2
Cr    -0.08091637   -0.06770433    3.65738182       3
Cr    -0.05078013   -0.05214078   -3.59198624       4
Co    -3.57560609   -0.04079386    0.01731187       5
Co     0.00166435   -3.60842720    0.02099790       6
Ni    -0.07849858    1.70584865    1.91742379       7
Ni     1.78334009   -0.06099308    1.92865763       8
Co    -0.07320009    1.72974603   -1.94419965       9
Co     1.75462192   -0.10058025   -1.95264568      10
Cr    -1.72616903    1.58322233   -0.02233954      11
Cr     1.66824140   -1.69192895    0.01377619      12
Cr    -1.79414567   -0.02718953    1.74612954      13
Cr    -0.03139797   -1.73883066    1.73695027      14
Co    -1.75760663   -0.06088583   -1.75163083      15
Cr    -0.00045887   -1.73532620   -1.70632902      16
Co    -1.67483742   -1.71631278    0.04681398      17
Ni     0.96042971    0.95034083   -0.01569049      18
          18
Lattice="  24.8920   0.0000   0.0000   0.0000  24.8920   0.0000   0.0000   0.0000  24.8920 " ConfE="      -5944.7752" DelE="          0.2265"
Ni     3.57694018   -0.05947961    0.01527993       1
Co    -0.02572988    3.50198210   -0.02487347       2
Cr    -0.07792287   -0.06275930    3.59689724       3
Cr    -0.03721646   -0.05178442   -3.54073579       4
Co    -3.59467248   -0.04595491    0.01420547       5
Co    -0.01466688   -3.64203157    0.02459220       6
Ni    -0.04817854    1.66911367    1.73800061       7
Ni     1.73475818   -0.05696443    1.77205792       8
Co    -0.05415787    1.68172340   -1.73551047       9
Co     1.68338888   -0.07679964   -1.74341724      10
Cr    -1.77380894    1.61411927   -0.02811189      11
Cr     1.68938706   -1.77362898   -0.00098360      12
Cr    -1.82602449   -0.04131384    1.72546380      13
Cr    -0.04832253   -1.76461654    1.69835720      14
Co    -1.77700622   -0.07250377   -1.73261842      15
Cr    -0.02047588   -1.76256947   -1.66499290      16
Co    -1.71052328   -1.75799495    0.03664250      17
Ni     1.71791077    1.68890553    0.01148002      18
