          18
Lattice="  24.8920   0.0000   0.0000   0.0000  24.8920   0.0000   0.0000   0.0000  24.8920 " ConfE="      -5947.0403" DelE="          0.0000"
Ni    -0.01505656    3.48154266    0.06051244       1
Co    -0.01996939    0.01651221    3.54959887       2
Cr    -0.05751651   -3.60848305    0.01724590       3
Co    -0.02317372   -0.02956509   -3.52307224       4
Co    -3.58073677   -0.01652261    0.02503080       5
Co     3.50945410   -0.05853115   -0.01891330       6
Ni    -1.79332020   -0.03975649    1.78150308       7
Ni     1.73098578   -0.02216862    1.77823451       8
Ni    -1.75174442    1.71346049    0.03715263       9
Ni    -0.02271939   -1.82476315    1.77025532      10
Ni     0.01090402    1.74337132   -1.78495684      11
Cr     1.76127191    1.72721226    0.06140508      12
Ni    -0.05022363   -1.81688964   -1.75905336      13
Ni    -1.81534133   -1.81946618    0.00657061      14
Co    -1.80172847   -0.01172338   -1.76970315      15
Cr     1.80204664   -0.07631314   -1.77204077      16
Co     1.75048410   -1.83200285   -0.01872779      17
Cr     0.00000000    0.00000000    0.00000000      18
          18
Lattice="  24.8920   0.0000   0.0000   0.0000  24.8920   0.0000   0.0000   0.0000  24.8920 " ConfE="      -5946.0352" DelE="          1.0051"
Ni    -0.03577835    3.43480462    0.07581518       1
Co     0.00146344    0.01610961    3.49874812       2
Cr    -0.06846116   -3.57193369    0.02925104       3
Co    -0.02784857   -0.00709321   -3.52240176       4
Co    -3.67456161   -0.03028367    0.01053574       5
Co     3.59840867   -0.05183429   -0.03038554       6
Ni    -1.94839941   -0.07658834    1.77154717       7
Ni     1.91277592   -0.09073962    1.80615691       8
Ni    -1.93549832    1.73602635   -0.00447600       9
Ni    -0.02530319   -1.73227970    1.73271023      10
Ni    -0.00502922    1.69920091   -1.68543597      11
Cr     1.91097200    1.76971123    0.03786203      12
Ni    -0.05656131   -1.72895694   -1.69634429      13
Ni    -1.82861694   -1.77938902    0.01477604      14
Co    -1.81988035    0.00511761   -1.74123380      15
Cr     1.73788734   -0.03951715   -1.65381575      16
Co     1.75863823   -1.77496147   -0.01702773      17
Cr     0.01794244    0.83452576    0.87848316      18
          18
Lattice="  24.8920   0.0000   0.0000   0.0000  24.8920   0.0000   0.0000   0.0000  24.8920 " ConfE="      -5946.9849" DelE="          0.0554"
Ni    -0.01044195    3.51462434    0.03342822       1
Co    -0.00502130   -0.03839897    3.60277238       2
Cr    -0.06856102   -3.60286207    0.00982612       3
Co    -0.02491826   -0.02466820   -3.55550201       4
Co    -3.60839180   -0.02326557    0.03349883       5
Co     3.55443654   -0.06713590   -0.01909907       6
Ni    -1.79354043   -0.06245548    1.77880011       7
Ni     1.74176266   -0.07107552    1.75625684       8
Ni    -1.73018192    1.66695446    0.02276174       9
Ni    -0.02533547   -1.79438556    1.73855284      10
Ni     0.02368013    1.68076032   -1.73063663      11
Cr     1.75411041    1.65822841    0.02708112      12
Ni    -0.05807311   -1.76653932   -1.73695502      13
Ni    -1.81258520   -1.80774789    0.00366928      14
Co    -1.82040064   -0.01984136   -1.78525573      15
Cr     1.78745494   -0.09924051   -1.74538369      16
Co     1.74087968   -1.81017535   -0.04222295      17
Cr     0.01888338    1.70471006    1.81125947      18
