          18
Lattice="  24.8920   0.0000   0.0000   0.0000  24.8920   0.0000   0.0000   0.0000  24.8920 " ConfE="      -5949.0038" DelE="          0.0000"
Co    -0.03520749    3.53465815   -0.03384318       1
Ni     3.49129565   -0.00226291   -0.01010002       2
Ni    -0.02439336   -3.57549616   -0.00400725       3
Co    -3.59257577   -0.04556629   -0.01217067       4
Ni    -0.03180908    0.00342355   -3.55715936       5
Ni    -0.03711347   -0.03517087    3.51828108       6
Cr    -0.04502375    1.76615802   -1.77130628       7
Ni    -0.00526369    1.74218155    1.70688503       8
Ni     1.74100353    0.00594377   -1.75392091       9
Cr     1.77499967   -0.06567885    1.75722779      10
Co    -1.85097709    1.76012598   -0.06227046      11
Cr     1.81846112   -1.81410618    0.03101224      12
Cr    -1.87677320   -1.76994340    0.00844194      13
Co    -1.81164694   -0.02970732   -1.77970724      14
Ni    -1.82168218   -0.01456053    1.75365534      15
Ni    -0.01143650   -1.80315214   -1.74385042      16
Co    -0.01721037   -1.79084300    1.73279679      17
Ni     0.00000000    0.00000000    0.00000000      18
          18
Lattice="  24.8920   0.0000   0.0000   0.0000  24.8920   0.0000   0.0000   0.0000  24.8920 " ConfE="      -5948.2331" DelE="          0.7706"
Co    -0.02116540    3.52590531   -0.01859161       1
Ni     3.48906267   -0.00629210   -0.01148472       2
Ni    -0.00945618   -3.57436851   -0.00380310       3
Co    -3.59016511   -0.03701971   -0.01067731       4
Ni    -0.04806822   -0.01824021   -3.62033653       5
Ni    -0.05966014   -0.04443245    3.56689574       6
Cr    -0.10669202    1.73654781   -1.85295855       7
Ni    -0.07936800    1.76619758    1.84428472       8
Ni     1.78247174   -0.07762832   -1.92470757       9
Cr     1.79342637   -0.11905881    1.93887868      10
Co    -1.79379884    1.74289201   -0.05684088      11
Cr     1.74969561   -1.71531315    0.03665789      12
Cr    -1.82255332   -1.73552711    0.00695550      13
Co    -1.76053838   -0.02691332   -1.74011419      14
Ni    -1.78824724   -0.00602607    1.73177119      15
Ni    -0.00120493   -1.76570562   -1.72442294      16
Co     0.02620699   -1.69597077    1.66496974      17
Ni     1.16275300    1.02686103    0.01955663      18
          18
Lattice="  24.8920   0.0000   0.0000   0.0000  24.8920   0.0000   0.0000   0.0000  24.8920 " ConfE="      -5948.7526" DelE="          0.2512"
Co    -0.06008514    3.58200321   -0.02303379       1
Ni     3.53317766   -0.02699964   -0.01295230       2
Ni    -0.02328565   -3.59558107    0.00400775       3
Co    -3.60926743   -0.04453175   -0.00837655       4
Ni    -0.04408738   -0.01050024   -3.57896033       5
Ni    -0.04453629   -0.03706106    3.53189125       6
Cr    -0.12465077    1.70125182   -1.74610562       7
Ni    -0.04931284    1.70605768    1.69609941       8
Ni     1.70495653   -0.04224692   -1.74831936       9
Cr     1.74042794   -0.09814327    1.74694050      10
Co    -1.80471211    1.73414073   -0.07597925      11
Cr     1.78336152   -1.77922135    0.04036722      12
Cr    -1.86333789   -1.75935690    0.00981478      13
Co    -1.78320239   -0.04650898   -1.73807513      14
Ni    -1.80881546   -0.02270111    1.72559142      15
Ni    -0.02429391   -1.78620351   -1.70644914      16
Co     0.01846762   -1.70762384    1.65148637      17
Ni     1.69279094    1.69570625   -0.01617706      18
