          18
Lattice="  24.8920   0.0000   0.0000   0.0000  24.8920   0.0000   0.0000   0.0000  24.8920 " ConfE="      -5936.9708" DelE="          0.0000"
Co    -0.05866643    0.06351753    3.38057239       1
Cr    -0.00687886   -3.44264422   -0.10102924       2
Ni     3.53872137    0.08315150   -0.11545068       3
Cr     0.04793687    3.67764361   -0.14624353       4
Cr    -0.02890119    0.06391166   -3.69213443       5
Cr    -3.53839023    0.00404569   -0.07902193       6
Co     1.70465197    0.01251820    1.61690963       7
Cr     1.72763128   -1.72243017   -0.06614365       8
Cr    -1.69450243    0.00702507    1.74353816       9
Co    -1.68639627   -1.71880909   -0.07142043      10
Ni     1.77486671    1.85078879   -0.11143917      11
Ni     0.00200558    1.88593695    1.66422693      12
Ni     0.02035672   -1.71082021   -1.92679885      13
Cr     1.75841763    0.09090123   -1.87421128      14
Co    -0.00771004    1.81717810   -1.87014344      15
Co    -1.77268427    1.85010996   -0.08757997      16
Cr    -1.74966289    0.07334273   -1.86703803      17
Cr     0.00000000    0.00000000    0.00000000      18
          18
Lattice="  24.8920   0.0000   0.0000   0.0000  24.8920   0.0000   0.0000   0.0000  24.8920 " ConfE="      -5936.4003" DelE="          0.5704"
Co    -0.05295153    0.07079857    3.39138985       1
Cr    -0.00825504   -3.53761350   -0.13853733       2
Ni     3.57881677    0.10129293   -0.13997227       3
Cr     0.04632545    3.65389025   -0.11569044       4
Cr    -0.03237555    0.04444709   -3.64028376       5
Cr    -3.63706572    0.04177787   -0.13451372       6
Co     1.85979650    0.10213535    1.65417825       7
Cr     1.90104210   -1.76849323   -0.16244628       8
Cr    -1.89002156    0.08261106    1.65730949       9
Co    -1.81355050   -1.73496102   -0.13556273      10
Ni     1.77170744    1.82905457   -0.10880098      11
Ni    -0.01041566    1.76234803    1.60571301      12
Ni     0.02203176   -1.72786356   -1.83607669      13
Cr     1.64145291    0.07883376   -1.75106050      14
Co     0.00160009    1.81891134   -1.85946773      15
Co    -1.77711757    1.82660067   -0.09927715      16
Cr    -1.63508839    0.08246677   -1.71959749      17
Cr     0.06732094   -0.98613714    0.98753833      18
          18
Lattice="  24.8920   0.0000   0.0000   0.0000  24.8920   0.0000   0.0000   0.0000  24.8920 " ConfE="      -5937.0232" DelE="         -0.0524"
Co    -0.05601001    0.09272940    3.44242112       1
Cr     0.00754518   -3.54058464   -0.13980265       2
Ni     3.54672196    0.09056603   -0.12565978       3
Cr     0.05584073    3.68649939   -0.13962846       4
Cr    -0.03796663    0.05503317   -3.67616036       5
Cr    -3.57821410    0.01788111   -0.10934137       6
Co     1.69366507    0.02028966    1.59276921       7
Cr     1.71388177   -1.69320565   -0.08931071       8
Cr    -1.71267906    0.06059540    1.56376082       9
Co    -1.69590946   -1.70392410   -0.11926128      10
Ni     1.76091621    1.83822944   -0.12440151      11
Ni    -0.00304768    1.82945053    1.62352429      12
Ni     0.02307478   -1.71381877   -1.88445874      13
Cr     1.68180032    0.09534221   -1.83172201      14
Co     0.00057972    1.82255560   -1.87403335      15
Co    -1.76707910    1.85881258   -0.11126251      16
Cr    -1.66935133    0.10092771   -1.77701814      17
Cr    -0.00404326   -1.61309005    1.64862254      18
