          18
Lattice="  24.8920   0.0000   0.0000   0.0000  24.8920   0.0000   0.0000   0.0000  24.8920 " ConfE="      -5935.0137" DelE="          0.0000"
Ni    -0.08348404    0.00822551   -3.50176447       1
Ni    -3.62201954   -0.03124868    0.03859085       2
Ni    -0.01537393   -3.52716295    0.02739345       3
Cr     3.60842021   -0.05709670    0.01016827       4
Cr    -0.03600014    3.52072901    0.07358991       5
Co    -0.05106393   -0.00749743    3.58285800       6
Cr    -0.06878231    1.73282324   -1.70023099       7
Cr     1.77007594    1.50165914   -0.08991385       8
Ni    -1.87861517   -0.03481565   -1.74090488       9
Co     0.04022170   -1.74557215   -1.73437121      10
Ni    -1.83997031    1.74464983    0.02447886      11
Cr     1.74356560   -1.64408851   -0.08747423      12
Co     0.01246106    1.76551419    1.77189383      13
Cr     1.72160180   -0.08711838    1.86438049      14
Co    -1.79026669   -0.01916805    1.78370623      15
Co    -0.01284350   -1.75872612    1.80736468      16
Cr    -1.76756113   -1.76512753    0.08738344      17
Co     0.00000000    0.00000000    0.00000000      18
          18
Lattice="  24.8920   0.0000   0.0000   0.0000  24.8920   0.0000   0.0000   0.0000  24.8920 " ConfE="      -5930.9482" DelE="          4.0655"
Ni    -0.11362491    0.02990816   -3.53946272       1
Ni    -3.66683194   -0.00776754    0.04410951       2
Ni    -0.23040744   -3.47758998    0.13776941       3
Cr     3.64100970   -0.08349199    0.00883089       4
Cr    -0.04379319    3.52816105    0.06446158       5
Co    -0.06159309   -0.00712360    3.60998919       6
Cr    -0.07830361    1.69145004   -1.69139999       7
Cr     1.65825220    1.32090054   -0.16797741       8
Ni    -1.89821015   -0.01767828   -1.74168523       9
Co     1.71749601   -2.72267634   -2.68176325      10
Ni    -1.81569192    1.70758862    0.01885165      11
Cr     1.71854659   -1.65530907   -0.02903465      12
Co     0.02304587    1.71512013    1.72579347      13
Cr     1.66938820   -0.08117085    1.85510180      14
Co    -1.78533686   -0.02000401    1.76968888      15
Co    -0.01829086   -1.69237694    1.79843329      16
Cr    -1.81011397   -1.66982187    0.09986153      17
Co     0.04488654   -1.52658198   -1.52754261      18
          18
Lattice="  24.8920   0.0000   0.0000   0.0000  24.8920   0.0000   0.0000   0.0000  24.8920 " ConfE="      -5931.0059" DelE="          4.0077"
Ni    -0.23262463    0.11130014   -3.56574586       1
Ni    -3.65168087   -0.01146809    0.04341131       2
Ni    -0.24257062   -3.49922289    0.14231974       3
Cr     3.60947759   -0.09286316   -0.04731040       4
Cr    -0.04796624    3.55203177    0.07507122       5
Co    -0.05652807   -0.00586452    3.60286859       6
Cr    -0.07315612    1.72546141   -1.67132939       7
Cr     1.67527424    1.40132657   -0.11760024       8
Ni    -1.86090649   -0.03299227   -1.71832255       9
Co     1.94456974   -2.99039728   -2.95678707      10
Ni    -1.81599020    1.72551520    0.02389959      11
Cr     1.65177730   -1.60860627   -0.02811358      12
Co     0.02178906    1.73071457    1.73067613      13
Cr     1.68586880   -0.07839296    1.84958813      14
Co    -1.77638378   -0.01565483    1.76333570      15
Co    -0.02222833   -1.69326434    1.77894618      16
Cr    -1.74628133   -1.65045131    0.07651572      17
Co     0.17572120   -1.69440729   -1.73878200      18
