          18
Lattice="  24.8920   0.0000   0.0000   0.0000  24.8920   0.0000   0.0000   0.0000  24.8920 " ConfE="      -5938.0428" DelE="          0.0000"
Co    -3.54491022    0.06311394   -0.11366699       1
Co    -0.08510783    3.53466530   -0.01031561       2
Ni     3.57606190   -0.01659462    0.00235869       3
Co     0.02538645   -3.56015515   -0.03558434       4
Ni     0.03858494   -0.04086879   -3.57987066       5
Ni     0.00751093   -0.00729503    3.53140938       6
Ni    -1.74588631   -0.04038801   -1.79078192       7
Ni    -1.74752327   -0.00964101    1.73294146       8
Ni    -0.00789577    1.73814838   -1.75659365       9
Ni    -0.00270752    1.75324058    1.75003030      10
Ni    -1.76154921   -1.77906902   -0.03356108      11
Co     1.79309489    1.75317457   -0.00111166      12
Co     1.79216057   -1.77542814   -0.00228790      13
Co     0.06817186   -1.80811859   -1.82219987      14
Co     0.06464229   -1.81496673    1.76779496      15
Cr     1.79631842   -0.06737473   -1.70451946      16
Cr     1.80971687    0.03396759    1.78140446      17
Ni     0.00000000    0.00000000    0.00000000      18
          18
Lattice="  24.8920   0.0000   0.0000   0.0000  24.8920   0.0000   0.0000   0.0000  24.8920 " ConfE="      -5937.1605" DelE="          0.8823"
Co    -3.53190349    0.04659215   -0.10958045       1
Co    -0.08558948    3.50871268   -0.00604802       2
Ni     3.57263838   -0.00848020   -0.00453277       3
Co     0.01657947   -3.54705823   -0.04492757       4
Ni     0.06043470   -0.04190014   -3.65785483       5
Ni     0.01548099   -0.01378514    3.59866410       6
Ni    -1.76521222   -0.12540889   -1.97319575       7
Ni    -1.76751897   -0.07271789    1.91664309       8
Ni     0.04557666    1.74639645   -1.89809030       9
Ni     0.02842192    1.76620298    1.88278258      10
Ni    -1.72117919   -1.68805535   -0.03695229      11
Co     1.71017499    1.70555903   -0.00334056      12
Co     1.73259628   -1.70411078   -0.01355558      13
Co     0.08354333   -1.75870914   -1.82490813      14
Co     0.06409044   -1.76442495    1.75216824      15
Cr     1.71690279   -0.06373712   -1.66001989      16
Cr     1.73575825    0.02709789    1.73043790      17
Ni    -1.00054625    0.89232809   -0.03405879      18
          18
Lattice="  24.8920   0.0000   0.0000   0.0000  24.8920   0.0000   0.0000   0.0000  24.8920 " ConfE="      -5937.9460" DelE="          0.0967"
Co    -3.59161259    0.00840269   -0.09430157       1
Co    -0.05103801    3.57390434   -0.01607159       2
Ni     3.60138072   -0.02004165   -0.00216857       3
Co     0.02417905   -3.57641964   -0.04170498       4
Ni     0.04213896   -0.03959250   -3.59502610       5
Ni     0.01664986   -0.01594498    3.54439925       6
Ni    -1.72378129   -0.05880730   -1.78360543       7
Ni    -1.69277922   -0.04731446    1.71834673       8
Ni     0.01873798    1.71021539   -1.76337079       9
Ni     0.02631305    1.70984808    1.73893299      10
Ni    -1.72790840   -1.75418779   -0.03898090      11
Co     1.74611952    1.69801644   -0.00912091      12
Co     1.74619782   -1.72064634   -0.01026614      13
Co     0.07578183   -1.78226165   -1.80950239      14
Co     0.07969949   -1.80397105    1.74670373      15
Cr     1.75025492   -0.07509363   -1.64130069      16
Cr     1.79589688    0.01441594    1.73401228      17
Ni    -1.75171038    1.72173374   -0.03050623      18
