          18
Lattice="  24.8920   0.0000   0.0000   0.0000  24.8920   0.0000   0.0000   0.0000  24.8920 " ConfE="      -5934.6514" DelE="          0.0000"
Ni    -0.06571782    0.02194307   -3.52233825       1
Ni    -0.01085526    3.47003500   -0.00521149       2
Co    -3.61192294   -0.04642170    0.00034858       3
Cr     3.51631652   -0.01022621    0.02968774       4
Cr    -0.02978574   -0.03625917    3.52224541       5
Cr    -0.07403529   -3.57923296    0.01538456       6
Ni    -1.81626963    0.02460808   -1.77561976       7
Ni    -0.05636401   -1.80796076   -1.76653546       8
Co    -1.78182116    1.75812643   -0.05688146       9
Cr     1.68440911    1.61253566    0.03159031      10
Ni    -0.05235652    1.76622284    1.80862001      11
Co     1.73179676    0.04824934   -1.78346502      12
Cr    -1.85704440   -1.74625144    0.02760689      13
Co     1.74969597   -0.04195108    1.79865106      14
Co    -0.06359460   -1.81166737    1.74483779      15
Co    -1.81930403   -0.02668272    1.75762553      16
Cr     1.72582741   -1.71885567    0.03110384      17
Co     0.00000000    0.00000000    0.00000000      18
          18
Lattice="  24.8920   0.0000   0.0000   0.0000  24.8920   0.0000   0.0000   0.0000  24.8920 " ConfE="      -5933.8878" DelE="          0.7637"
Ni    -0.06721320    0.02039063   -3.50498061       1
Ni    -0.01313114    3.44507154    0.00453531       2
Co    -3.67650703   -0.05918458    0.01096023       3
Cr     3.57895762   -0.05871661    0.04018749       4
Cr    -0.04062300   -0.02244452    3.55034585       5
Cr    -0.06593764   -3.59033203   -0.00581043       6
Ni    -1.94867363   -0.01118809   -1.80292502       7
Ni    -0.07167349   -1.75270043   -1.75950450       8
Co    -1.93208310    1.77082465    0.00065895       9
Cr     1.84881552    1.62998580    0.11819765      10
Ni    -0.05592116    1.71195899    1.74772966      11
Co     1.89040969   -0.03967369   -1.84983120      12
Cr    -1.78045834   -1.68495333    0.03750636      13
Co     1.74203515   -0.03116533    1.79140961      14
Co    -0.06703944   -1.76329301    1.71045244      15
Co    -1.82377666   -0.02712334    1.71965077      16
Cr     1.57572850   -1.52895519    0.01824592      17
Co     0.03610234    0.87924918   -0.86481781      18
          18
Lattice="  24.8920   0.0000   0.0000   0.0000  24.8920   0.0000   0.0000   0.0000  24.8920 " ConfE="      -5934.7587" DelE="         -0.1073"
Ni    -0.06140617   -0.05002100   -3.55695859       1
Ni    -0.02157149    3.52517549    0.00645686       2
Co    -3.63550374   -0.04912296    0.00046643       3
Cr     3.54872500   -0.01476906    0.03762339       4
Cr    -0.03020296   -0.03157682    3.54701966       5
Cr    -0.07111491   -3.62327665    0.02131906       6
Ni    -1.82035831   -0.02516409   -1.73633299       7
Ni    -0.06423947   -1.78247770   -1.71017317       8
Co    -1.78259872    1.73582775   -0.03856546       9
Cr     1.65792900    1.58504738    0.01061687      10
Ni    -0.04959529    1.73578332    1.74957426      11
Co     1.72882506   -0.01435667   -1.74112592      12
Cr    -1.83481058   -1.74619270    0.07045542      13
Co     1.71851644   -0.03483080    1.74912799      14
Co    -0.06375761   -1.78712951    1.70703644      15
Co    -1.79991740   -0.03871010    1.71542605      16
Cr     1.67473715   -1.65698840    0.05466417      17
Co    -0.02381342    1.71831149   -1.78500367      18
