          18
Lattice="  24.8920   0.0000   0.0000   0.0000  24.8920   0.0000   0.0000   0.0000  24.8920 " ConfE="      -5940.7736" DelE="          0.0000"
Ni     0.02786894   -3.50236861   -0.02901719       1
Ni    -3.46309665    0.00650518   -0.00009703       2
Ni     3.61875036    0.06968133   -0.00129229       3
Cr     0.01866037    0.00998441    3.55915962       4
Co     0.04411455    3.56184514   -0.04195823       5
Co     0.06908128    0.07051795   -3.56525542       6
Ni     0.02052062   -1.74729121    1.75415788       7
Co    -1.72635027   -0.00073181    1.77085090       8
Co     0.05848461   -1.71295625   -1.79719995       9
Co    -1.71792317    0.04578811   -1.80611357      10
Cr     1.82493403   -1.70731646   -0.04404659      11
Cr     1.81553630    0.02923467    1.79878780      12
Co     1.81182231    1.78239569   -0.03637772      13
Cr     1.80833461    0.03479927   -1.79220303      14
Cr    -1.68725909    1.81644231   -0.02715211      15
Co     0.08193667    1.76895118    1.75053533      16
Cr     0.05700428    1.85652191   -1.75357668      17
Ni     0.00000000    0.00000000    0.00000000      18
          18
Lattice="  24.8920   0.0000   0.0000   0.0000  24.8920   0.0000   0.0000   0.0000  24.8920 " ConfE="      -5939.2683" DelE="          1.5053"
Ni     0.00124088   -3.47099695   -0.03018423       1
Ni    -3.46514156    0.01731700   -0.01967116       2
Ni     3.64048230    0.05244825   -0.00936429       3
Cr     0.02012248    0.05070184    3.58827578       4
Co     0.03208626    3.49258681   -0.09005969       5
Co     0.10123235    0.11744304   -3.55911170       6
Ni     0.03547247   -1.75308361    1.86613298       7
Co    -1.71090783    0.09332302    1.91006383       8
Co     0.10271973   -1.67795965   -1.92212764       9
Co    -1.85137915    0.08625177   -2.01838679      10
Cr     1.59772327   -1.55564229   -0.06909603      11
Cr     1.68632557    0.06960666    1.65233230      12
Co     1.90285830    1.81022937   -0.03502335      13
Cr     1.96405414   -0.00157456   -1.85078142      14
Cr    -1.78587071    1.78700583   -0.01517608      15
Co     0.05650487    1.71148154    1.62934465      16
Cr     0.05127708    0.99737738   -1.03381327      17
Ni    -1.15743434   -1.04184477   -0.03973221      18
          18
Lattice="  24.8920   0.0000   0.0000   0.0000  24.8920   0.0000   0.0000   0.0000  24.8920 " ConfE="      -5939.7427" DelE="          1.0309"
Ni     0.04037831   -3.53150869   -0.03688232       1
Ni    -3.53199729    0.03428084   -0.01477098       2
Ni     3.66949270    0.06863416   -0.01074280       3
Cr     0.02441601    0.03152392    3.55686917       4
Co     0.03264863    3.47120194   -0.10406713       5
Co     0.07787884    0.10263158   -3.49094290       6
Ni     0.03237458   -1.70378813    1.72335394       7
Co    -1.69071020    0.06268067    1.72104934       8
Co     0.06911169   -1.66579050   -1.76338056       9
Co    -1.83853960    0.02350308   -1.85120762      10
Cr     1.70431793   -1.59427497   -0.07003837      11
Cr     1.73914651    0.08085339    1.65471778      12
Co     1.91436891    1.81798352   -0.03744059      13
Cr     1.98116046    0.00281894   -1.84145771      14
Cr    -1.77442892    1.83392477   -0.05823846      15
Co     0.07720695    1.72703890    1.65716624      16
Cr     0.06333400    0.84510847   -0.87967556      17
Ni    -1.72148747   -1.68107934   -0.02398700      18
