          18
Lattice="  24.8920   0.0000   0.0000   0.0000  24.8920   0.0000   0.0000   0.0000  24.8920 " ConfE="      -5923.1643" DelE="          0.0000"
Ni    -0.03055172   -0.05383703   -3.52716276       1
Co    -0.01794065    3.43361263   -0.05524126       2
Co    -3.55024740   -0.01602339   -0.01063522       3
Cr     3.50085631   -0.06792859    0.16638153       4
Co    -0.00576265   -3.53152297   -0.01168854       5
Cr    -0.01686218   -0.03975841    3.54402836       6
Ni    -1.75549152   -0.01536928   -1.75762914       7
Cr    -1.75488728    1.74351048   -0.03245745       8
Co     1.77281743    1.74362560   -0.03091505       9
Co     1.78691369    0.00308660   -1.77734443      10
Ni    -1.77669989   -1.80406142    0.00153958      11
Co    -0.03066480    1.73484997    1.82117585      12
Cr     0.04487558   -1.81951563   -1.73549735      13
Cr    -1.80117744   -0.00448082    1.76742460      14
Co     1.74452129   -0.03216962    1.80199883      15
Co     1.77809131   -1.78928557    0.02018600      16
Co    -0.01530136   -1.78669285    1.80898961      17
Ni     0.00000000    0.00000000    0.00000000      18
          18
Lattice="  24.8920   0.0000   0.0000   0.0000  24.8920   0.0000   0.0000   0.0000  24.8920 " ConfE="      -5922.5565" DelE="          0.6079"
Ni    -0.03006880   -0.04853312   -3.48791445       1
Co     0.00159978    3.39954170   -0.06509514       2
Co    -3.59414393   -0.02544912    0.00107745       3
Cr     3.57818623   -0.10024737    0.15626620       4
Co    -0.02213293   -3.53562695   -0.01185066       5
Cr    -0.01186410   -0.02907294    3.54895048       6
Ni    -1.92473526   -0.07053789   -1.81533870       7
Cr    -1.92063446    1.73623773   -0.00834743       8
Co     1.98431999    1.77465358    0.02964848       9
Co     2.01521386   -0.05313499   -1.82939509      10
Ni    -1.78771169   -1.78103885   -0.00739453      11
Co    -0.02631552    1.68847096    1.73002525      12
Cr     0.05925985   -1.73204982   -1.66542749      13
Cr    -1.73809684    0.00236167    1.71321304      14
Co     1.73291868   -0.02227261    1.75647569      15
Co     1.72657612   -1.73794852   -0.00392779      16
Co    -0.03286961   -1.72634678    1.75729463      17
Ni     0.04143854    0.75483434   -0.80876648      18
          18
Lattice="  24.8920   0.0000   0.0000   0.0000  24.8920   0.0000   0.0000   0.0000  24.8920 " ConfE="      -5923.0648" DelE="          0.0995"
Ni    -0.01857145   -0.07313575   -3.55572440       1
Co    -0.00533011    3.51334068   -0.00673134       2
Co    -3.56875668   -0.02781073   -0.00223670       3
Cr     3.52270836   -0.06902768    0.18173135       4
Co    -0.01046086   -3.55913900   -0.00586753       5
Cr    -0.00844249   -0.03888230    3.56348616       6
Ni    -1.74250107   -0.06744377   -1.72079256       7
Cr    -1.74890800    1.69596135    0.02488929       8
Co     1.77574136    1.71388716    0.00145673       9
Co     1.80101450   -0.03745364   -1.74953521      10
Ni    -1.73206878   -1.78043412    0.01580424      11
Co    -0.05076130    1.68871851    1.74186019      12
Cr     0.09237710   -1.76518871   -1.67518901      13
Cr    -1.73838491   -0.02578484    1.74944954      14
Co     1.70561745   -0.03610216    1.76756977      15
Co     1.71467008   -1.76298211    0.01507030      16
Co    -0.02111375   -1.75965945    1.79288255      17
Ni    -0.00776414    1.67114479   -1.72989214      18
