          18
Lattice="  24.8920   0.0000   0.0000   0.0000  24.8920   0.0000   0.0000   0.0000  24.8920 " ConfE="      -5938.0965" DelE="          0.0000"
Ni    -3.44499685    0.05929890    0.01384769       1
Ni     0.05770339    3.59408515    0.00009983       2
Co     0.04510881    0.06084045    3.47882240       3
Co     0.00700298   -3.50401543   -0.00642261       4
Cr     3.64376343    0.00530651   -0.02356010       5
Cr     0.09360773   -0.02637675   -3.53811974       6
Ni     0.07951874   -1.73516541    1.75140758       7
Ni    -1.70141846    1.77858025    0.05621710       8
Cr    -1.72155885   -1.68022627    0.11073059       9
Ni     1.86752885    0.03567441    1.72073611      10
Ni     0.04423538    1.80895318   -1.77792159      11
Ni     1.82096102    1.81763973   -0.01166344      12
Co     0.04587062    1.80000582    1.79156599      13
Co    -1.69186974   -0.00935240   -1.85312140      14
Co     1.83631421   -1.76224028   -0.02165963      15
Co     0.03539429   -1.76194940   -1.79598437      16
Co     1.81921484    0.01146903   -1.77155248      17
Cr     0.00000000    0.00000000    0.00000000      18
          18
Lattice="  24.8920   0.0000   0.0000   0.0000  24.8920   0.0000   0.0000   0.0000  24.8920 " ConfE="      -5937.4817" DelE="          0.6148"
Ni    -3.38595793    0.06759908    0.04481980       1
Ni     0.07018600    3.64253520   -0.01830845       2
Co     0.06126380    0.05831172    3.40974578       3
Co     0.02023260   -3.56284352   -0.00365114       4
Cr     3.64631663    0.00574305   -0.02266503       5
Cr     0.08623699   -0.02554269   -3.52505242       6
Ni     0.15551814   -1.86400140    1.75985193       7
Ni    -1.74072775    1.93675247    0.00559089       8
Cr    -1.77274318   -1.83807435    0.08730358       9
Ni     1.83456055    0.03309595    1.67849610      10
Ni     0.03269212    1.78042036   -1.73898136      11
Ni     1.79044229    1.80106050   -0.01465434      12
Co     0.08336767    1.91749648    1.78438809      13
Co    -1.67179329   -0.01383338   -1.77505407      14
Co     1.82791212   -1.75922803   -0.02089373      15
Co     0.01956884   -1.71801462   -1.70728113      16
Co     1.78206762    0.00481043   -1.73320495      17
Cr    -0.58906767    0.05295314    0.67507788      18
          18
Lattice="  24.8920   0.0000   0.0000   0.0000  24.8920   0.0000   0.0000   0.0000  24.8920 " ConfE="      -5938.0697" DelE="          0.0268"
Ni    -3.49077756    0.06330650   -0.01776788       1
Ni     0.06602169    3.61634686   -0.01521633       2
Co     0.09008153    0.05986083    3.53398589       3
Co     0.01800494   -3.53215596   -0.00569887       4
Cr     3.64382755    0.00388293   -0.01930500       5
Cr     0.09818931   -0.02671070   -3.54634701       6
Ni     0.08528340   -1.71835625    1.70459492       7
Ni    -1.68133278    1.78954096   -0.00569696       8
Cr    -1.69062778   -1.68163459    0.02438087       9
Ni     1.82715822    0.04379299    1.68434764      10
Ni     0.06117229    1.78648909   -1.77656620      11
Ni     1.81788302    1.81420940   -0.02637107      12
Co     0.07211034    1.80947434    1.77038909      13
Co    -1.66323805   -0.01788719   -1.79720668      14
Co     1.83205594   -1.74742377   -0.03589713      15
Co     0.04563804   -1.73938556   -1.77805180      16
Co     1.80443919    0.01043829   -1.75896496      17
Cr    -1.62907924    0.09418429    1.71820508      18
