          18
Lattice="  24.8920   0.0000   0.0000   0.0000  24.8920   0.0000   0.0000   0.0000  24.8920 " ConfE="      -5938.6815" DelE="          0.0000"
Ni    -3.52731414    0.04595194    0.04123087       1
Co    -0.01489021    0.05613481   -3.51108822       2
Cr     3.55245022    0.02649353    0.11868011       3
Co    -0.02650442    0.02831782    3.64330476       4
Co    -0.03221023   -3.47112032    0.03817822       5
Cr     0.05590465    3.66316664    0.09572812       6
Ni     1.76478540   -1.68428459    0.02333648       7
Ni     0.01848508    1.82386792   -1.75275615       8
Ni     1.74926185    1.77157896    0.00617148       9
Ni    -1.77137146    0.02958773   -1.73217033      10
Ni    -1.76003323    0.02045793    1.78242914      11
Co    -0.02661710   -1.70714435   -1.72279792      12
Ni    -1.77046507    1.83356968    0.03430777      13
Ni     1.76063419    0.06279464    1.81951903      14
Ni    -0.02397569    1.81850060    1.80360071      15
Cr    -1.68493262   -1.80557680    0.01385639      16
Co    -0.00375736   -1.74566407    1.83839539      17
Co     0.00000000    0.00000000    0.00000000      18
          18
Lattice="  24.8920   0.0000   0.0000   0.0000  24.8920   0.0000   0.0000   0.0000  24.8920 " ConfE="      -5934.2423" DelE="          4.4391"
Ni    -3.55600736    0.07877410    0.03868328       1
Co    -0.01834228    0.05352724   -3.53545171       2
Cr     3.60590995    0.00919541    0.15478727       3
Co    -0.02160182    0.05815362    3.70486552       4
Co     0.01068388   -3.40342570    0.09057644       5
Cr     0.04971919    3.68286165    0.10121078       6
Ni     1.41059488   -0.58426112   -0.54514637       7
Ni     0.02449520    1.73427757   -1.68665227       8
Ni     1.74902227    1.80768774    0.05238318       9
Ni    -1.79761311   -0.01104622   -1.76227230      10
Ni    -1.81099293    0.15555269    1.93536751      11
Co    -0.10315546   -1.85902041   -1.87648216      12
Ni    -1.76677871    1.81191879    0.04407783      13
Ni     1.74779517    0.05465208    1.81879014      14
Ni    -0.02457556    1.81364384    1.80583637      15
Cr    -2.12176604   -2.64788553   -1.25406278      16
Co     0.09542595   -1.73270822    1.99149684      17
Co    -1.32378482   -1.32075819    0.22092538      18
          18
Lattice="  24.8920   0.0000   0.0000   0.0000  24.8920   0.0000   0.0000   0.0000  24.8920 " ConfE="      -5934.8029" DelE="          3.8786"
Ni    -3.57721190    0.10550217    0.05803539       1
Co    -0.01800887    0.08717234   -3.53758906       2
Cr     3.60250415    0.02566057    0.14018832       3
Co    -0.03194324    0.04485987    3.66958034       4
Co    -0.05046898   -3.46590903    0.09142238       5
Cr     0.06544323    3.68418322    0.09728445       6
Ni     1.72709881   -1.60669673    0.03829450       7
Ni     0.01240570    1.81340913   -1.73782744       8
Ni     1.71821011    1.72771728   -0.00440072       9
Ni    -1.76351360    0.05304519   -1.71716319      10
Ni    -1.75226123    0.03756887    1.77520957      11
Co    -0.03207803   -1.66134269   -1.70068835      12
Ni    -1.76391344    1.82999194    0.03569656      13
Ni     1.74304406    0.07341499    1.81238449      14
Ni    -0.02852596    1.81641969    1.79243089      15
Cr    -1.84189667   -3.12660894   -1.69625539      16
Co     0.00550994   -1.72744416    1.89227901      17
Co    -1.75136339   -1.71986777    0.04990190      18
