          18
Lattice="  24.8920   0.0000   0.0000   0.0000  24.8920   0.0000   0.0000   0.0000  24.8920 " ConfE="      -5949.3540" DelE="          0.0000"
Co    -0.00872171    0.02239400   -3.53668877       1
Co    -0.01342807    3.49732931   -0.04304563       2
Ni    -3.54911559   -0.01907369   -0.03257120       3
Cr    -0.03313024   -3.56107863    0.00906969       4
Cr    -0.01955939   -0.04894961    3.52675985       5
Co     3.52101233   -0.02244840    0.03649915       6
Co    -1.76378267   -0.00245168   -1.77485774       7
Cr    -1.61458286    1.75565384   -0.22178577       8
Co     1.74898899    0.02079350   -1.77716206       9
Co     1.74414570    1.73904864    0.00447728      10
Ni    -1.77615317   -1.79777105   -0.01555932      11
Ni    -0.00772580   -1.80182708   -1.78249451      12
Ni    -0.00384413    1.75278113    1.77626497      13
Cr    -1.80248521   -0.02009868    1.75352843      14
Co    -0.01083647   -1.79001843    1.77706763      15
Cr     1.72739515   -1.67588160   -0.00791896      16
Cr     1.77432450   -0.03412894    1.80191992      17
Co     0.00000000    0.00000000    0.00000000      18
          18
Lattice="  24.8920   0.0000   0.0000   0.0000  24.8920   0.0000   0.0000   0.0000  24.8920 " ConfE="      -5948.6732" DelE="          0.6808"
Co    -0.00673986    0.03598132   -3.47674529       1
Co    -0.01950668    3.43967061   -0.06157253       2
Ni    -3.61953945   -0.04883546   -0.01739946       3
Cr    -0.04356515   -3.57034711   -0.00448119       4
Cr    -0.02171382   -0.04281231    3.56008402       5
Co     3.57487724   -0.01921348    0.06495664       6
Co    -1.94723415   -0.08518680   -1.83317624       7
Cr    -1.89998839    1.76808229   -0.06465600       8
Co     1.89503044   -0.03311865   -1.79212971       9
Co     1.88676036    1.76630159    0.05839897      10
Ni    -1.77023116   -1.76467540   -0.02059926      11
Ni    -0.01392652   -1.74831991   -1.75560342      12
Ni    -0.02041305    1.71196794    1.71793055      13
Cr    -1.77546868   -0.02710207    1.71555665      14
Co    -0.00109533   -1.73446574    1.72367383      15
Cr     1.67965486   -1.59510048   -0.00295672      16
Cr     1.72302384   -0.01747438    1.77106743      17
Co    -0.05743100    0.80987619   -0.81408144      18
          18
Lattice="  24.8920   0.0000   0.0000   0.0000  24.8920   0.0000   0.0000   0.0000  24.8920 " ConfE="      -5949.2077" DelE="          0.1463"
Co    -0.00158186   -0.01660780   -3.57513026       1
Co    -0.00299855    3.54736782   -0.01532712       2
Ni    -3.58109367   -0.04715632   -0.02351544       3
Cr    -0.03908403   -3.60034913    0.00367064       4
Cr    -0.00935755   -0.04826062    3.57539701       5
Co     3.53739066   -0.02254140    0.04721761       6
Co    -1.76753275   -0.02144069   -1.74766540       7
Cr    -1.69569332    1.69553153   -0.11400247       8
Co     1.74618857   -0.01811342   -1.73570613       9
Co     1.73133919    1.70076608    0.03023397      10
Ni    -1.75037094   -1.77979394   -0.00838070      11
Ni    -0.00706060   -1.77038255   -1.74936469      12
Ni    -0.01628725    1.71671077    1.72875446      13
Cr    -1.75974222   -0.03831376    1.73678176      14
Co     0.00188205   -1.75996604    1.74623340      15
Cr     1.69280909   -1.64688763    0.00363715      16
Cr     1.70998831   -0.04896203    1.77198690      17
Co    -0.01967576    1.73515869   -1.74024980      18
