          18
Lattice="  24.8920   0.0000   0.0000   0.0000  24.8920   0.0000   0.0000   0.0000  24.8920 " ConfE="      -5938.3178" DelE="          0.0000"
Ni    -0.01139352    0.00293536    3.46332318       1
Cr     0.01256133   -3.48182191    0.08298085       2
Cr     3.51361899    0.05789161   -0.06319947       3
Co    -0.00939768    0.11912623   -3.60825999       4
Cr    -3.43109490    0.06858791    0.04273721       5
Cr     0.00576016    3.56884635    0.01317134       6
Ni     1.73631502   -1.73074576   -0.02388342       7
Ni    -0.01148858   -1.72109823   -1.84407441       8
Co    -1.74917420   -1.74656535   -0.00679083       9
Co     1.79109377    0.00694768    1.72575627      10
Co    -1.79896313    0.05020645    1.71273277      11
Ni    -1.77651682    0.04849166   -1.81549505      12
Cr     0.04009120    1.78650963    1.75518669      13
Co     1.78872152    0.10056948   -1.83785635      14
Cr     1.76764596    1.79124748   -0.03227165      15
Co    -1.74912377    1.83919212   -0.01927058      16
Co    -0.01614083    1.84174133   -1.77928110      17
Ni     0.00000000    0.00000000    0.00000000      18
          18
Lattice="  24.8920   0.0000   0.0000   0.0000  24.8920   0.0000   0.0000   0.0000  24.8920 " ConfE="      -5937.6571" DelE="          0.6607"
Ni    -0.02417419    0.00817744    3.46642250       1
Cr     0.02117966   -3.44224289    0.09724053       2
Cr     3.60365806    0.08863340   -0.10269401       3
Co    -0.00840312    0.11497413   -3.60419078       4
Cr    -3.48892232    0.04764214   -0.01313786       5
Cr     0.00893187    3.57136804    0.03409248       6
Ni     1.86676144   -1.70757833   -0.08988940       7
Ni    -0.01370946   -1.67682511   -1.74904306       8
Co    -1.92433750   -1.73396240   -0.06606224       9
Co     1.97789733    0.07696018    1.71465700      10
Co    -1.98568310    0.11650215    1.73222354      11
Ni    -1.76930148    0.04631772   -1.78927988      12
Cr     0.01632560    1.65562228    1.66933574      13
Co     1.77882147    0.10908964   -1.79827140      14
Cr     1.72240540    1.70282830   -0.05484024      15
Co    -1.71851468    1.79361212   -0.00613238      16
Co    -0.00954156    1.81352222   -1.72673399      17
Ni    -0.02471524   -1.00132665    1.11489001      18
          18
Lattice="  24.8920   0.0000   0.0000   0.0000  24.8920   0.0000   0.0000   0.0000  24.8920 " ConfE="      -5938.2690" DelE="          0.0488"
Ni    -0.01487075    0.03665595    3.52562347       1
Cr     0.02184460   -3.53563588    0.00936920       2
Cr     3.56023223    0.06711964   -0.08173734       3
Co    -0.01058622    0.11824964   -3.61846712       4
Cr    -3.46224949    0.06931249    0.02727199       5
Cr     0.01110381    3.58518724    0.01727226       6
Ni     1.72329562   -1.66960156   -0.06220371       7
Ni    -0.01547821   -1.68348525   -1.80080630       8
Co    -1.76421423   -1.71932699   -0.03618658       9
Co     1.77073503    0.04899009    1.69339969      10
Co    -1.76454720    0.06109712    1.67778644      11
Ni    -1.76663653    0.05199657   -1.79305332      12
Cr     0.02978490    1.70305678    1.68644778      13
Co     1.77930799    0.11565215   -1.82150053      14
Cr     1.72648042    1.73801274   -0.07715293      15
Co    -1.71514376    1.81154383   -0.01930211      16
Co    -0.00737558    1.81815159   -1.74074216      17
Ni     0.00080172   -1.71459445    1.71625221      18
