          18
Lattice="  24.8920   0.0000   0.0000   0.0000  24.8920   0.0000   0.0000   0.0000  24.8920 " ConfE="      -5935.6330" DelE="          0.0000"
Ni     3.52848411    0.18725601   -0.22549280       1
Co    -0.00085750    0.15103800    3.30965146       2
Cr    -0.02232761   -3.17674833   -0.01824671       3
Ni    -3.59558963    0.16764475   -0.21108106       4
Cr    -0.02978913    3.78738386   -0.18715541       5
Cr    -0.04001569    0.21388725   -3.81388566       6
Co     1.76622276    0.14996380    1.56858684       7
Cr     1.79747368   -1.61207713   -0.18558020       8
Co    -1.76496443    0.16032868    1.56380751       9
Co    -1.75930271   -1.56241603   -0.17778273      10
Ni     1.72916339    1.94595112   -0.20084632      11
Ni    -0.04734608    1.89175893   -1.93919905      12
Cr     1.74886555    0.13906185   -2.00451873      13
Cr    -1.79384785    1.92417888   -0.15366041      14
Cr    -1.81027630    0.16912646   -1.93057235      15
Cr     0.01413610    1.94141523    1.63579124      16
Co    -0.01581843   -1.58734393   -1.99859862      17
Cr     0.00000000    0.00000000    0.00000000      18
          18
Lattice="  24.8920   0.0000   0.0000   0.0000  24.8920   0.0000   0.0000   0.0000  24.8920 " ConfE="      -5935.3755" DelE="          0.2575"
Ni     3.56344326    0.20320229   -0.23282506       1
Co     0.00371628    0.16609156    3.29428909       2
Cr     0.01534888   -3.33977792   -0.13837706       3
Ni    -3.63580779    0.18550542   -0.22569063       4
Cr    -0.02871710    3.76221509   -0.17299180       5
Cr    -0.02385969    0.19411747   -3.76852847       6
Co     1.85896619    0.20473598    1.57759342       7
Cr     1.89454536   -1.61579629   -0.22646984       8
Co    -1.89252146    0.19460663    1.58548083       9
Co    -1.88186193   -1.58037164   -0.22415688      10
Ni     1.71884890    1.92942962   -0.19314584      11
Ni    -0.03493652    1.91235228   -1.94318126      12
Cr     1.67829716    0.12915028   -1.91967310      13
Cr    -1.71445561    1.83232170   -0.11263989      14
Cr    -1.71689785    0.14911227   -1.85221747      15
Cr     0.02109918    1.90116160    1.62921203      16
Co    -0.00923427   -1.54708895   -1.86548880      17
Cr    -0.03289199   -0.87309244    0.85230401      18
          18
Lattice="  24.8920   0.0000   0.0000   0.0000  24.8920   0.0000   0.0000   0.0000  24.8920 " ConfE="      -5935.9577" DelE="         -0.3247"
Ni     3.53459139    0.19701159   -0.23594886       1
Co    -0.00243079    0.17066193    3.37730383       2
Cr     0.03080608   -3.37191436   -0.18105930       3
Ni    -3.60494802    0.17558422   -0.22106301       4
Cr    -0.02926920    3.78506595   -0.18385046       5
Cr    -0.03561696    0.21860785   -3.80641416       6
Co     1.72179086    0.18067146    1.51994232       7
Cr     1.72751250   -1.54298644   -0.21921148       8
Co    -1.74235632    0.19289005    1.53245716       9
Co    -1.70933318   -1.52366294   -0.20200578      10
Ni     1.71720396    1.95217645   -0.21757357      11
Ni    -0.04538796    1.91601383   -1.94987546      12
Cr     1.70615722    0.14437737   -1.98559075      13
Cr    -1.75962286    1.89790238   -0.15523971      14
Cr    -1.75945650    0.17335534   -1.90008987      15
Cr    -0.00294190    1.86172268    1.59334843      16
Co    -0.00347672   -1.55686289   -1.94966819      17
Cr    -0.02292734   -1.52957689    1.52704925      18
