          18
Lattice="  24.8920   0.0000   0.0000   0.0000  24.8920   0.0000   0.0000   0.0000  24.8920 " ConfE="      -5923.5229" DelE="          0.0000"
Co    -0.01755852   -0.04324370    3.56123279       1
Co     0.03314481    3.53907742    0.04694170       2
Co     0.01495767   -3.51407372   -0.01069268       3
Cr     0.04370405   -0.01880474   -3.49290288       4
Cr    -3.51099006    0.02165095    0.05637342       5
Co     3.56718530    0.05255988   -0.00470449       6
Ni    -1.72600337    1.77962492    0.05013398       7
Ni     1.72389789    0.03976515    1.76185658       8
Ni     1.74994896    1.76931625    0.03718240       9
Co    -1.69744970    0.02140546    1.77361819      10
Ni    -1.74298082   -1.77096666    0.01746293      11
Ni    -1.77981723    0.01436170   -1.76549875      12
Ni     1.77818969   -1.76523876    0.00495822      13
Co    -0.00280572   -1.78201048    1.81002395      14
Co     0.01030714    1.78983249   -1.80336173      15
Co     0.03025133   -1.75012501   -1.76576508      16
Co     1.77704633    0.02689014   -1.75138692      17
Cr     0.00000000    0.00000000    0.00000000      18
          18
Lattice="  24.8920   0.0000   0.0000   0.0000  24.8920   0.0000   0.0000   0.0000  24.8920 " ConfE="      -5922.5619" DelE="          0.9609"
Co    -0.01296474   -0.00552334    3.50341753       1
Co     0.01500975    3.46016972    0.06509945       2
Co     0.02217758   -3.50439530   -0.01221231       3
Cr     0.04559513   -0.01444351   -3.48179286       4
Cr    -3.66302386   -0.03619018    0.01190848       5
Co     3.64794826    0.02487456   -0.01260586       6
Ni    -1.93524108    1.78433247   -0.00733746       7
Ni     1.87728527   -0.01603823    1.78646766       8
Ni     1.93677183    1.76983600   -0.02185460       9
Co    -1.83419854   -0.00588948    1.78110934      10
Ni    -1.71968187   -1.72040614    0.02504052      11
Ni    -1.77384804    0.01878920   -1.72073181      12
Ni     1.75818875   -1.71442975    0.00532774      13
Co     0.00093926   -1.67944482    1.78024097      14
Co     0.00558252    1.72851211   -1.69820394      15
Co     0.03265199   -1.69995840   -1.75191596      16
Co     1.77340202    0.03496085   -1.74149135      17
Cr     0.00774098    0.94586782    0.91929969      18
          18
Lattice="  24.8920   0.0000   0.0000   0.0000  24.8920   0.0000   0.0000   0.0000  24.8920 " ConfE="      -5923.3001" DelE="          0.2228"
Co    -0.00273659   -0.02244025    3.59733163       1
Co     0.02468879    3.58137229    0.00065092       2
Co     0.01151977   -3.53809364   -0.01158720       3
Cr     0.03917146   -0.02844531   -3.52196530       4
Cr    -3.54985640    0.00932346    0.04145295       5
Co     3.59315293    0.04293985   -0.01484284       6
Ni    -1.72140774    1.75058448    0.01335629       7
Ni     1.73949013    0.01319991    1.74913234       8
Ni     1.75266350    1.73663547   -0.00300827       9
Co    -1.70715149    0.01761409    1.76669994      10
Ni    -1.72041398   -1.75039561    0.02371880      11
Ni    -1.74646234    0.00196942   -1.74728586      12
Ni     1.73770012   -1.74499510    0.00064667      13
Co    -0.01912433   -1.73342819    1.82746091      14
Co     0.02064476    1.77600027   -1.78471875      15
Co     0.03205179   -1.73880069   -1.76546571      16
Co     1.75074754    0.02116330   -1.76957320      17
Cr     0.04504856    1.76462434    1.73645534      18
