          18
Lattice="  24.8920   0.0000   0.0000   0.0000  24.8920   0.0000   0.0000   0.0000  24.8920 " ConfE="      -5944.8063" DelE="          0.0000"
Ni     0.08369822   -0.04786193    3.59886995       1
Ni     0.04383011   -3.63476572    0.03491807       2
Co     0.09291294    3.41479804    0.13035244       3
Co     0.06232694   -0.14839556   -3.48544925       4
Cr     3.63390092   -0.13505411    0.04810302       5
Co    -3.47770307   -0.12676800    0.07513624       6
Ni     1.76680091   -0.04167401    1.83443682       7
Ni    -1.67366105   -0.06900681    1.81152188       8
Ni     1.81291903    1.66998787    0.07647704       9
Ni     1.85157967   -0.09929745   -1.73263163      10
Ni    -1.72621555   -0.10625016   -1.74032903      11
Co    -1.64259064    1.64912740    0.09300080      12
Ni     0.05526666   -1.87666002    1.80214278      13
Ni     1.79112961   -1.83249135    0.05133273      14
Co     0.05583226    1.61599998   -1.72327238      15
Cr     0.02133899   -1.81393651   -1.71826837      16
Cr    -1.73437004   -1.88818938    0.02840010      17
Cr     0.00000000    0.00000000    0.00000000      18
          18
Lattice="  24.8920   0.0000   0.0000   0.0000  24.8920   0.0000   0.0000   0.0000  24.8920 " ConfE="      -5944.0073" DelE="          0.7991"
Ni     0.07415584   -0.04177812    3.53584449       1
Ni     0.05453303   -3.62912743    0.05262220       2
Co     0.08981866    3.34287860    0.12264096       3
Co     0.05794586   -0.13096253   -3.50462189       4
Cr     3.72814830   -0.19580884    0.01905420       5
Co    -3.54476219   -0.14294038    0.07114476       6
Ni     1.90122505   -0.09789496    1.85037115       7
Ni    -1.82435115   -0.11802168    1.85007287       8
Ni     1.97067388    1.65884855    0.00247001       9
Ni     1.84272276   -0.09104446   -1.70367452      10
Ni    -1.69033203   -0.08744141   -1.67086785      11
Co    -1.82570747    1.67307858    0.07725327      12
Ni     0.05200515   -1.81579913    1.78692181      13
Ni     1.78619637   -1.79419830    0.06378145      14
Co     0.05940910    1.59611488   -1.66672138      15
Cr     0.02709605   -1.73587833   -1.63094605      16
Cr    -1.68253101   -1.81828803    0.03499065      17
Cr     0.02664907    0.76224872    0.81136854      18
          18
Lattice="  24.8920   0.0000   0.0000   0.0000  24.8920   0.0000   0.0000   0.0000  24.8920 " ConfE="      -5945.0521" DelE="         -0.2458"
Ni     0.07547051   -0.06966620    3.60950098       1
Ni     0.05081032   -3.66545216    0.04077263       2
Co     0.07720699    3.48449163    0.06994562       3
Co     0.04984752   -0.14195060   -3.53272091       4
Cr     3.64064892   -0.14828850    0.03811765       5
Co    -3.50606093   -0.14056498    0.06711563       6
Ni     1.76263724   -0.06021266    1.81789903       7
Ni    -1.67393022   -0.11597755    1.77623749       8
Ni     1.80194466    1.65407298    0.05111673       9
Ni     1.82059448   -0.11149935   -1.72345946      10
Ni    -1.68299111   -0.13147067   -1.70705528      11
Co    -1.66213536    1.64828350    0.08150499      12
Ni     0.05013477   -1.86983144    1.78458971      13
Ni     1.77899871   -1.83207730    0.04655834      14
Co     0.04574348    1.60169168   -1.67979206      15
Cr     0.01425734   -1.80382407   -1.66804592      16
Cr    -1.71268280   -1.90837396    0.00998156      17
Cr    -0.03237730    1.71132869    1.69349611      18
