          18
Lattice="  24.8920   0.0000   0.0000   0.0000  24.8920   0.0000   0.0000   0.0000  24.8920 " ConfE="      -5943.3212" DelE="          0.0000"
Cr    -0.01289246   -0.07041659   -3.51742206       1
Ni     0.00046483    3.42895847    0.00981823       2
Ni     0.01780743   -0.03324528    3.60626269       3
Ni     0.00191687   -3.58188834    0.03005564       4
Co    -3.52453179   -0.03977349    0.04390230       5
Ni     3.56913402   -0.04169657    0.01480460       6
Co    -1.75931693    0.00749742   -1.73733570       7
Ni     1.74829159   -0.00955869   -1.76973899       8
Cr    -1.78487568    1.69498205    0.02087766       9
Ni     1.80379457    1.72925193    0.02509747      10
Co    -0.00719014   -1.83382854   -1.75811796      11
Co     0.00353827    1.72890969    1.85583916      12
Cr    -0.00210938   -1.78930819    1.80667705      13
Ni    -1.75894629   -1.80373483    0.03183762      14
Cr     1.78342743   -1.82414136   -0.01687975      15
Co    -1.76186172   -0.01081772    1.85672620      16
Ni     1.80078872   -0.05252733    1.79352906      17
Ni     0.00000000    0.00000000    0.00000000      18
          18
Lattice="  24.8920   0.0000   0.0000   0.0000  24.8920   0.0000   0.0000   0.0000  24.8920 " ConfE="      -5942.1923" DelE="          1.1288"
Cr    -0.00031975    0.00671000   -3.43259063       1
Ni     0.01257763    3.37849939   -0.04182179       2
Ni     0.02577956   -0.01723427    3.58255516       3
Ni     0.00021155   -3.57675989    0.01716920       4
Co    -3.58071931   -0.04695528    0.05643194       5
Ni     3.66237941   -0.06365957    0.04148042       6
Co    -1.98382871   -0.10852869   -1.81776800       7
Ni     1.93871559   -0.05270944   -1.77525721       8
Cr    -1.93307110    1.72526667    0.04588725       9
Ni     1.95728451    1.74944432    0.04908775      10
Co     0.01143015   -1.74412684   -1.71548039      11
Co    -0.00100879    1.69164140    1.75394950      12
Cr     0.01258233   -1.66699309    1.67715263      13
Ni    -1.75632418   -1.77084977    0.02653266      14
Cr     1.75935566   -1.77775334   -0.01282356      15
Co    -1.75705962    0.00629639    1.81279027      16
Ni     1.81772663   -0.03602740    1.75873816      17
Ni    -0.04606908    0.82267959   -0.87525324      18
          18
Lattice="  24.8920   0.0000   0.0000   0.0000  24.8920   0.0000   0.0000   0.0000  24.8920 " ConfE="      -5943.5625" DelE="         -0.2413"
Cr    -0.00409004   -0.14013569   -3.55227437       1
Ni     0.00837859    3.46951895    0.04417370       2
Ni     0.01802036   -0.02924159    3.59922037       3
Ni    -0.00200713   -3.58217892    0.02698280       4
Co    -3.52387432   -0.04026797    0.03718532       5
Ni     3.56751982   -0.04155640    0.01125437       6
Co    -1.78932118   -0.04276309   -1.76342222       7
Ni     1.78092596   -0.05220980   -1.77065220       8
Cr    -1.78931834    1.70678372    0.00469716       9
Ni     1.80513726    1.73154743    0.02152561      10
Co    -0.00596745   -1.82391628   -1.76275401      11
Co    -0.00076005    1.73025449    1.83393256      12
Cr    -0.00715418   -1.79762445    1.81321737      13
Ni    -1.76266779   -1.80793747    0.03016120      14
Cr     1.79268719   -1.84875429   -0.01008848      15
Co    -1.76548460   -0.01119114    1.85546071      16
Ni     1.79987358   -0.05340287    1.78690151      17
Ni    -0.00003599   -0.02894608    0.01562531      18
