          18
Lattice="  24.8920   0.0000   0.0000   0.0000  24.8920   0.0000   0.0000   0.0000  24.8920 " ConfE="      -5945.6517" DelE="          0.0000"
Ni    -0.06262315    3.45905875   -0.06884923       1
Ni     3.42524873   -0.02546750   -0.08700521       2
Ni    -0.08716552   -3.62813832   -0.06307551       3
Ni    -3.62836221   -0.02870427   -0.07066226       4
Cr    -0.08368655   -0.04290177   -3.68762449       5
Co    -0.06991700   -0.07215150    3.44778624       6
Ni    -0.05622459    1.72663732   -1.82498151       7
Cr    -0.03089858    1.71420761    1.77388708       8
Ni     1.67759521   -0.02563287   -1.84268225       9
Cr     1.71373621    0.00384275    1.69846299      10
Ni    -1.85770164    1.72646665   -0.06329707      11
Cr     1.69473528   -1.85656101   -0.05380600      12
Cr    -1.81617731   -1.80096102   -0.01957833      13
Cr    -1.80958021   -0.06187871   -1.84356955      14
Co    -1.81315917   -0.04698488    1.69800805      15
Co    -0.10389854   -1.79016316   -1.78942951      16
Cr    -0.04027055   -1.85650417    1.72534856      17
Cr     0.00000000    0.00000000    0.00000000      18
          18
Lattice="  24.8920   0.0000   0.0000   0.0000  24.8920   0.0000   0.0000   0.0000  24.8920 " ConfE="      -5945.0659" DelE="          0.5858"
Ni    -0.07361661    3.43978580   -0.05995079       1
Ni     3.38079908   -0.04660127   -0.09306350       2
Ni    -0.07912876   -3.63612761   -0.05830092       3
Ni    -3.61822858   -0.02431824   -0.07526983       4
Cr    -0.09854462   -0.06157882   -3.74812583       5
Co    -0.06672885   -0.07653747    3.48547735       6
Ni    -0.08063406    1.73944842   -1.92522246       7
Cr    -0.13353432    1.78169459    1.93524786       8
Ni     1.67411261   -0.05323946   -1.93087169       9
Cr     1.82291775   -0.10572208    1.88601461      10
Ni    -1.78710830    1.69131734   -0.06557778      11
Cr     1.63169819   -1.81403112   -0.06540113      12
Cr    -1.70052699   -1.71269387   -0.02926977      13
Cr    -1.73647196   -0.04907345   -1.80140516      14
Co    -1.73837491   -0.04750004    1.66128961      15
Co    -0.09375929   -1.74462547   -1.74957303      16
Cr    -0.01468951   -1.74738550    1.67406061      17
Cr     0.83575957    0.89789808    0.08529505      18
          18
Lattice="  24.8920   0.0000   0.0000   0.0000  24.8920   0.0000   0.0000   0.0000  24.8920 " ConfE="      -5945.5906" DelE="          0.0611"
Ni    -0.10311116    3.49604899   -0.07174052       1
Ni     3.46409158   -0.05665763   -0.07951533       2
Ni    -0.08511132   -3.64006138   -0.06467441       3
Ni    -3.62807683   -0.03522199   -0.07381419       4
Cr    -0.09709101   -0.04203502   -3.70673523       5
Co    -0.07701220   -0.07994206    3.49029764       6
Ni    -0.09041363    1.71421794   -1.84627253       7
Cr    -0.08368960    1.69596899    1.78635695       8
Ni     1.65856836   -0.04731784   -1.86022083       9
Cr     1.65093279   -0.06545516    1.72477749      10
Ni    -1.81754528    1.68955869   -0.07161612      11
Cr     1.58222495   -1.73912646   -0.04199890      12
Cr    -1.70613184   -1.72372530   -0.03531505      13
Cr    -1.80636270   -0.07725682   -1.83857833      14
Co    -1.74766931   -0.06476284    1.65778083      15
Co    -0.12170711   -1.75582813   -1.76512732      16
Cr    -0.06296815   -1.84672193    1.72003455      17
Cr     1.51859709    1.54801994   -0.01363494      18
