          18
Lattice="  24.8920   0.0000   0.0000   0.0000  24.8920   0.0000   0.0000   0.0000  24.8920 " ConfE="      -5943.2193" DelE="          0.0000"
Ni    -3.47884335    0.03854118    0.06436122       1
Cr     0.04620971   -3.45014353    0.04618296       2
Co     0.08897295    0.04931259    3.61132020       3
Co     0.06504429    0.06764974   -3.48870344       4
Co     0.06205557    3.58000819    0.04760311       5
Cr     3.64722745    0.05804376    0.04249560       6
Ni    -1.70317543    0.00781513    1.81131447       7
Cr     0.11258244   -1.73253808    1.73318537       8
Co     0.04762997   -1.71952500   -1.65607727       9
Ni    -1.71769380    1.82953148    0.08044256      10
Co    -1.68907211    0.04692017   -1.69630874      11
Ni     1.84778748    1.83668906    0.06436829      12
Co     1.88493508   -1.68878143    0.00807051      13
Cr     0.09263245    1.79550267    1.85586454      14
Co     1.81379073    0.04602165    1.79772195      15
Cr     1.80996200    0.03230560   -1.72730415      16
Cr     0.05929138    1.81042299   -1.71084048      17
Cr     0.00000000    0.00000000    0.00000000      18
          18
Lattice="  24.8920   0.0000   0.0000   0.0000  24.8920   0.0000   0.0000   0.0000  24.8920 " ConfE="      -5942.3982" DelE="          0.8211"
Ni    -3.47769122    0.02840436    0.07290970       1
Cr     0.08087524   -3.49932069    0.05173411       2
Co     0.10391435    0.08033151    3.68341956       3
Co     0.07607220    0.09143579   -3.56383770       4
Co     0.05370220    3.57433485    0.04068815       5
Cr     3.63153183    0.03515465    0.04252382       6
Ni    -1.72403947    0.05280450    1.91201719       7
Cr     0.18447399   -1.65892853    1.86206532       8
Co     0.12616026   -1.72655364   -1.86741570       9
Ni    -1.70767054    1.75189224    0.10481624      10
Co    -1.71861715    0.09508951   -1.81000551      11
Ni     1.86436728    1.84415131    0.06831346      12
Co     1.74510324   -1.66315464    0.00858620      13
Cr     0.10710070    1.68363492    1.76522128      14
Co     1.76478207    0.05062874    1.76942036      15
Cr     1.73238966   -0.00444104   -1.63810962      16
Cr     0.03696294    1.58772769   -1.51630645      17
Cr    -1.00919847   -1.11269973   -0.03210549      18
          18
Lattice="  24.8920   0.0000   0.0000   0.0000  24.8920   0.0000   0.0000   0.0000  24.8920 " ConfE="      -5942.9032" DelE="          0.3161"
Ni    -3.49777913    0.04525406    0.06666931       1
Cr     0.12753672   -3.55372996    0.08256873       2
Co     0.09251155    0.05635532    3.64854330       3
Co     0.07248865    0.07899802   -3.52223897       4
Co     0.06644494    3.60552165    0.05354130       5
Cr     3.64291154    0.05308827    0.04483060       6
Ni    -1.67055845    0.02499546    1.80976515       7
Cr     0.15057485   -1.66784488    1.72710500       8
Co     0.07795624   -1.68886791   -1.67028573       9
Ni    -1.67354829    1.78681585    0.09564140      10
Co    -1.64376901    0.06794977   -1.68388406      11
Ni     1.84387923    1.83221020    0.07377814      12
Co     1.80906974   -1.65747461    0.02161020      13
Cr     0.11760807    1.76083458    1.83211651      14
Co     1.77728224    0.05767259    1.79048429      15
Cr     1.77442878    0.02999845   -1.67443863      16
Cr     0.07123422    1.73992689   -1.62059378      17
Cr    -1.58105015   -1.71837011    0.02279197      18
