          18
Lattice="  24.8920   0.0000   0.0000   0.0000  24.8920   0.0000   0.0000   0.0000  24.8920 " ConfE="      -5942.6045" DelE="          0.0000"
Cr    -0.07071770   -0.00121041   -3.53524702       1
Ni     3.52056562   -0.00086027    0.01780838       2
Co    -0.03414850   -0.00264873    3.59704054       3
Ni    -3.65395306   -0.02870386    0.03474803       4
Ni    -0.06334063   -3.51570869    0.00355326       5
Cr    -0.03562261    3.47672608   -0.00164108       6
Cr     0.02353574   -1.73677508   -1.80657745       7
Cr     0.00850381    1.67260421   -1.71739035       8
Cr     1.72674704   -1.67296090   -0.04407571       9
Cr     1.75946692    1.66195553   -0.02729833      10
Ni    -1.87424287   -0.03395205   -1.73491420      11
Cr     1.77616998   -0.07493089    1.86182991      12
Cr    -1.82813234   -0.02426008    1.80716794      13
Co    -1.80227071   -1.74607859    0.05920383      14
Cr    -1.85342083    1.70547810    0.06329448      15
Cr    -0.03661367   -1.75600514    1.81713241      16
Ni    -0.03804045    1.74972858    1.80210832      17
Co     0.00000000    0.00000000    0.00000000      18
          18
Lattice="  24.8920   0.0000   0.0000   0.0000  24.8920   0.0000   0.0000   0.0000  24.8920 " ConfE="      -5941.6631" DelE="          0.9414"
Cr    -0.00020382    0.02059076   -3.52734700       1
Ni     3.44084075   -0.00441934    0.00666109       2
Co    -0.00380336    0.00676274    3.62417231       3
Ni    -3.56425948   -0.05635005    0.03180653       4
Ni    -0.10290400   -3.60339577    0.00918234       5
Cr    -0.04539767    3.58768451    0.02892702       6
Cr     0.00706996   -1.94555306   -1.92380943       7
Cr    -0.10508590    1.91302024   -1.71555668       8
Cr     1.67357861   -1.87537728    0.05192209       9
Cr     1.73697989    1.87242259    0.05202834      10
Ni    -1.80549540   -0.01726727   -1.79883656      11
Cr     1.57199910   -0.08514181    1.65092037      12
Cr    -1.73988935   -0.01974882    1.84578121      13
Co    -1.10118329   -1.29932057    0.07382606      14
Cr    -1.76271357    1.64412535    0.04576949      15
Cr     0.00533667   -1.87189633    1.94809282      16
Ni    -0.04719837    1.75513490    1.77016517      17
Co     0.92777720   -0.00835931   -1.03201813      18
          18
Lattice="  24.8920   0.0000   0.0000   0.0000  24.8920   0.0000   0.0000   0.0000  24.8920 " ConfE="      -5942.9847" DelE="         -0.3802"
Cr    -0.10676565    0.00035027   -3.54879959       1
Ni     3.52938872   -0.00428728    0.02137723       2
Co    -0.03581424   -0.00510621    3.59625105       3
Ni    -3.62578457   -0.05420403    0.03599155       4
Ni    -0.11650897   -3.47355534    0.00067764       5
Cr    -0.05110942    3.49261172    0.01528943       6
Cr    -0.00733051   -1.78983983   -1.82074681       7
Cr    -0.05310485    1.71405566   -1.70161156       8
Cr     1.75055298   -1.74320992   -0.00213932       9
Cr     1.74127978    1.70884080    0.02279150      10
Ni    -1.85590547   -0.07451816   -1.70238382      11
Cr     1.75455427   -0.08523299    1.81688898      12
Cr    -1.84236924   -0.06834245    1.79835711      13
Co    -0.08486358   -0.07324984    0.05039658      14
Cr    -1.85753369    1.71861018    0.06838713      15
Cr    -0.07865124   -1.74879066    1.81203608      16
Ni    -0.05633253    1.74334412    1.80534409      17
Co     1.68096665   -0.01775032   -1.76743955      18
