          18
Lattice="  24.8920   0.0000   0.0000   0.0000  24.8920   0.0000   0.0000   0.0000  24.8920 " ConfE="      -5949.3632" DelE="          0.0000"
Co    -3.46814528    0.00568266    0.00388192       1
Co     0.05975177   -0.03742435   -3.55687822       2
Ni     3.56724863   -0.02821514    0.06650385       3
Cr     0.07577146    0.02138010    3.61635754       4
Ni     0.04468246    3.55144992    0.05255757       5
Co     0.08145496   -3.54603126    0.02752624       6
Cr    -1.81775299    1.76760535    0.05744264       7
Ni    -1.70592138   -1.75856014   -0.00863999       8
Ni    -0.00786297    1.73457320   -1.75081577       9
Co     0.03562991   -1.76267367   -1.79648974      10
Co    -1.70417056   -0.01034685    1.81791543      11
Ni     1.81866011   -0.00768857   -1.72489869      12
Cr     1.75395893   -0.04821109    1.87391045      13
Ni     0.02273794    1.76869588    1.79792942      14
Co     0.06900505   -1.78850473    1.82876988      15
Ni     1.79560390    1.76363016    0.06197223      16
Cr     1.73276170   -1.82622051    0.04939197      17
Ni     0.00000000    0.00000000    0.00000000      18
          18
Lattice="  24.8920   0.0000   0.0000   0.0000  24.8920   0.0000   0.0000   0.0000  24.8920 " ConfE="      -5948.8236" DelE="          0.5396"
Co    -3.45457176   -0.01772564    0.00835907       1
Co     0.04965309   -0.01985584   -3.54624307       2
Ni     3.56106185   -0.02150242    0.05818869       3
Cr     0.08032287    0.02936555    3.62447879       4
Ni     0.05102886    3.58530430    0.04987159       5
Co     0.10079952   -3.59679337    0.03775848       6
Cr    -1.84505162    1.88541410    0.09960140       7
Ni    -1.72391706   -1.92643867    0.07249470       8
Ni     0.06534457    1.89194366   -1.80762549       9
Co     0.07738025   -1.89938765   -1.85912494      10
Co    -1.66808926   -0.01626140    1.75895264      11
Ni     1.74223296   -0.00262322   -1.69327218      12
Cr     1.67701736   -0.05556985    1.80277455      13
Ni     0.01279297    1.76387730    1.77136712      14
Co     0.07321993   -1.77511646    1.80227344      15
Ni     1.76890956    1.76051479    0.05585679      16
Cr     1.64395150   -1.75022864    0.04585083      17
Ni    -0.71372525    0.00970852   -0.71540336      18
          18
Lattice="  24.8920   0.0000   0.0000   0.0000  24.8920   0.0000   0.0000   0.0000  24.8920 " ConfE="      -5949.4237" DelE="         -0.0605"
Co    -3.52395909    0.00696728    0.03625037       1
Co     0.07316503   -0.03252670   -3.56952081       2
Ni     3.58809239   -0.03006504    0.06789825       3
Cr     0.09474588    0.02954831    3.63573313       4
Ni     0.06187996    3.57173426    0.06516084       5
Co     0.09842189   -3.58226860    0.03936771       6
Cr    -1.76572068    1.77400421    0.10541378       7
Ni    -1.64625026   -1.74684265    0.02514382       8
Ni     0.03868397    1.75768977   -1.70830790       9
Co     0.07361813   -1.77283001   -1.75997474      10
Co    -1.65309026    0.01394472    1.74414504      11
Ni     1.78403843   -0.01446126   -1.68517970      12
Cr     1.72799530   -0.06657482    1.84301533      13
Ni     0.04495572    1.74871980    1.78475592      14
Co     0.10365838   -1.75007667    1.79105324      15
Ni     1.77513876    1.72991237    0.07177363      16
Cr     1.69628046   -1.77179870    0.05496753      17
Ni    -1.68603887    0.02844145   -1.70838386      18
