          18
Lattice="  24.8920   0.0000   0.0000   0.0000  24.8920   0.0000   0.0000   0.0000  24.8920 " ConfE="      -5924.9006" DelE="          0.0000"
Ni     0.04890196    0.00111479    3.46390609       1
Co     0.04035708   -3.43386038   -0.02753444       2
Co     0.05061405    0.06763745   -3.58310710       3
Cr     0.03829505    3.55945068   -0.12578974       4
Ni    -3.58051244    0.05229921   -0.06378634       5
Co     3.62854357    0.00642489   -0.04257421       6
Cr    -1.70149012   -0.01362205    1.68814463       7
Ni     1.80309698   -0.02370409    1.71464410       8
Cr    -1.76327721   -1.65947799   -0.07262792       9
Cr     1.79338654   -1.73797062   -0.05963042      10
Cr     0.06423018    1.81517231    1.69622731      11
Ni     0.01815342   -1.71581057   -1.85876328      12
Co     0.03112753    1.81756356   -1.78644741      13
Cr    -1.76185136    1.73549651   -0.12644008      14
Ni     1.82896711    1.78040267   -0.06102629      15
Co    -1.75338522    0.04456348   -1.79268437      16
Cr     1.80088086    0.00428805   -1.76318889      17
Co     0.00000000    0.00000000    0.00000000      18
          18
Lattice="  24.8920   0.0000   0.0000   0.0000  24.8920   0.0000   0.0000   0.0000  24.8920 " ConfE="      -5924.4173" DelE="          0.4833"
Ni     0.04768257   -0.00888721    3.45657164       1
Co     0.01590794   -3.44596312   -0.04305044       2
Co     0.05020279    0.06683109   -3.57872429       3
Cr     0.05812297    3.57931000   -0.09764675       4
Ni    -3.62207124    0.06934108   -0.06347260       5
Co     3.68094668    0.02165401   -0.04673918       6
Cr    -1.82133178    0.04192602    1.71652844       7
Ni     1.92733793    0.03517502    1.73557201       8
Cr    -1.90404249   -1.66008177   -0.14151675       9
Cr     1.94006849   -1.72301936   -0.14190839      10
Cr     0.03942957    1.67672336    1.63508725      11
Ni     0.01876130   -1.67596531   -1.78596579      12
Co     0.02972484    1.78244895   -1.74438671      13
Cr    -1.69380837    1.65845733   -0.13290725      14
Ni     1.81806797    1.75223175   -0.05022521      15
Co    -1.74205033    0.04121468   -1.76101971      16
Cr     1.77115146    0.01618912   -1.73182381      17
Co     0.00389993   -1.03337645    0.90941579      18
          18
Lattice="  24.8920   0.0000   0.0000   0.0000  24.8920   0.0000   0.0000   0.0000  24.8920 " ConfE="      -5924.8300" DelE="          0.0706"
Ni     0.04284101    0.02413382    3.50345137       1
Co     0.01123611   -3.51124548   -0.08331490       2
Co     0.05450175    0.07110566   -3.59226109       3
Cr     0.05517502    3.59704465   -0.12888181       4
Ni    -3.59178765    0.06146550   -0.06550738       5
Co     3.64704845    0.01011139   -0.04439339       6
Cr    -1.66256482    0.02202942    1.63790224       7
Ni     1.80456691    0.01829566    1.68811650       8
Cr    -1.74049838   -1.62031282   -0.09757074       9
Cr     1.79022162   -1.71007582   -0.08634381      10
Cr     0.04750731    1.75442083    1.65310889      11
Ni     0.02516489   -1.69057658   -1.81755276      12
Co     0.02563989    1.79428243   -1.75450702      13
Cr    -1.69876545    1.69384503   -0.14986512      14
Ni     1.80521024    1.76144956   -0.06745521      15
Co    -1.72550450    0.04324327   -1.76260030      16
Cr     1.78516494    0.00242990   -1.74516660      17
Co     0.02074630   -1.68201522    1.62356142      18
