          18
Lattice="  24.8920   0.0000   0.0000   0.0000  24.8920   0.0000   0.0000   0.0000  24.8920 " ConfE="      -5940.7601" DelE="          0.0000"
Cr     0.01354885   -0.01492219   -3.37612914       1
Ni     0.02283917    3.49355263    0.09446849       2
Co    -0.03819226   -0.07823615    3.67795930       3
Cr    -0.03251144   -3.69879408    0.08411837       4
Cr    -3.51893405   -0.02345353    0.02537274       5
Co     3.52362364   -0.07570191    0.12868029       6
Co    -1.71122432   -0.00079167   -1.70620022       7
Co     1.75216129   -0.04618413   -1.67818469       8
Co    -1.72631382    1.73478415    0.05312391       9
Cr     1.74777608    1.73471775    0.01976214      10
Co    -0.02132338   -1.87745176   -1.70194122      11
Cr     0.04583694    1.68247582    1.89011298      12
Ni     0.00157401   -1.86847123    1.90322075      13
Cr    -1.72007437   -1.84622711    0.06617217      14
Cr     1.68027785   -1.86345361    0.06798555      15
Cr    -1.75185629   -0.04368798    1.82464304      16
Co     1.76883699   -0.08726903    1.85467308      17
Cr     0.00000000    0.00000000    0.00000000      18
          18
Lattice="  24.8920   0.0000   0.0000   0.0000  24.8920   0.0000   0.0000   0.0000  24.8920 " ConfE="      -5940.3909" DelE="          0.3692"
Cr     0.01581040   -0.03831351   -3.48147386       1
Ni     0.02264962    3.44599870    0.12186252       2
Co    -0.04618817   -0.07034889    3.71624145       3
Cr    -0.01983551   -3.62347236    0.06150908       4
Cr    -3.62189655   -0.06498322    0.11010739       5
Co     3.60153988   -0.10593116    0.16885879       6
Co    -1.87732422   -0.06541750   -1.71641038       7
Co     1.88318736   -0.11007634   -1.69800771       8
Co    -1.86140985    1.70774383    0.12395776       9
Cr     1.87345633    1.62751219    0.15873662      10
Co    -0.01480849   -1.72526354   -1.71563643      11
Cr     0.02623622    1.63053300    1.84402088      12
Ni    -0.01072167   -1.86121135    1.97825633      13
Cr    -1.54451172   -1.67340369    0.03945178      14
Cr     1.52210004   -1.64546135    0.06616431      15
Cr    -1.71823539   -0.03310290    1.79081207      16
Co     1.74205522   -0.09237585    1.85651513      17
Cr    -0.00066997    1.05506140   -1.04900947      18
          18
Lattice="  24.8920   0.0000   0.0000   0.0000  24.8920   0.0000   0.0000   0.0000  24.8920 " ConfE="      -5940.8389" DelE="         -0.0788"
Cr     0.02710437   -0.04842521   -3.47233265       1
Ni     0.02835106    3.52086075    0.12913393       2
Co    -0.04704143   -0.07757559    3.70789565       3
Cr    -0.02318963   -3.67863302    0.08103767       4
Cr    -3.54022589   -0.04582571    0.04589260       5
Co     3.56188649   -0.09934309    0.15121144       6
Co    -1.71659389   -0.03747354   -1.67229731       7
Co     1.76143118   -0.07329488   -1.64673010       8
Co    -1.72142023    1.67838029    0.10049946       9
Cr     1.74555346    1.60184330    0.10664527      10
Co    -0.00258324   -1.80720864   -1.69278951      11
Cr     0.02425849    1.62948839    1.82865091      12
Ni    -0.00639143   -1.87340875    1.95658624      13
Cr    -1.57847281   -1.75905693    0.04861039      14
Cr     1.57538311   -1.76632336    0.07709947      15
Cr    -1.72833095   -0.06016890    1.79081892      16
Co     1.74394043   -0.10706139    1.85646557      17
Cr     0.01191040    1.68107619   -1.60096395      18
