          18
Lattice="  24.8920   0.0000   0.0000   0.0000  24.8920   0.0000   0.0000   0.0000  24.8920 " ConfE="      -5939.8651" DelE="          0.0000"
Ni    -0.01506926    0.02721259   -3.53828354       1
Ni     0.05270417   -3.51615784   -0.03716165       2
Ni     0.06535832    3.55995685   -0.02414979       3
Ni     0.04529895    0.03760925    3.53394793       4
Co    -3.49876423   -0.02118152   -0.02923285       5
Cr     3.67216054   -0.02770163   -0.01947262       6
Ni    -0.00066453   -1.72743033   -1.77539778       7
Ni    -1.71787418    1.73782223   -0.06952310       8
Ni     1.84177563    0.01079894    1.74419064       9
Co     0.05779221    1.72227206   -1.79970105      10
Co    -1.72771986   -1.69692823    0.02194478      11
Ni    -1.76019479    0.04287265    1.79792555      12
Cr     1.86269810   -0.00398825   -1.77333440      13
Co     1.84628619   -1.74823368   -0.03227441      14
Cr     1.81507353    1.73875486   -0.05691788      15
Co     0.06630035    1.80128495    1.75999719      16
Cr     0.03700745   -1.74733323    1.75241383      17
Cr     0.00000000    0.00000000    0.00000000      18
          18
Lattice="  24.8920   0.0000   0.0000   0.0000  24.8920   0.0000   0.0000   0.0000  24.8920 " ConfE="      -5938.9647" DelE="          0.9003"
Ni     0.00820868    0.02390984   -3.49931344       1
Ni     0.07136480   -3.55492189   -0.03904821       2
Ni     0.07620274    3.60989740   -0.01679604       3
Ni     0.04166849    0.04145199    3.51835351       4
Co    -3.48450947   -0.01043711   -0.02683595       5
Cr     3.65759166   -0.02221174   -0.03727316       6
Ni     0.07920455   -1.84456108   -1.81477491       7
Ni    -1.75457635    1.89718031    0.02373279       8
Ni     1.80927623    0.01123536    1.69489699       9
Co     0.10045964    1.83126230   -1.80665592      10
Co    -1.72373604   -1.80172402    0.03214273      11
Ni    -1.70364102    0.04217387    1.69003659      12
Cr     1.84102148   -0.00926609   -1.75332134      13
Co     1.80676325   -1.70859633   -0.06066304      14
Cr     1.74650744    1.69110165   -0.08711749      15
Co     0.07557731    1.78654829    1.70866133      16
Cr     0.02149235   -1.70277135    1.67184577      17
Cr    -1.00373974    0.03358950   -1.02437262      18
          18
Lattice="  24.8920   0.0000   0.0000   0.0000  24.8920   0.0000   0.0000   0.0000  24.8920 " ConfE="      -5939.5822" DelE="          0.2829"
Ni     0.02825227    0.02491133   -3.58564039       1
Ni     0.05717525   -3.53519078   -0.03753382       2
Ni     0.07876588    3.58266712   -0.02126168       3
Ni     0.05267445    0.03996671    3.54265709       4
Co    -3.52720138   -0.01805212   -0.01106682       5
Cr     3.66764111   -0.02869929   -0.02158339       6
Ni     0.01793717   -1.71272254   -1.75347966       7
Ni    -1.68034594    1.74618127   -0.03957285       8
Ni     1.80717570    0.00161736    1.70879737       9
Co     0.09714862    1.70750884   -1.77285387      10
Co    -1.70630809   -1.69629236    0.03342983      11
Ni    -1.70547768    0.04285095    1.74868296      12
Cr     1.82369365    0.00349485   -1.73801494      13
Co     1.82004239   -1.72330540   -0.03837875      14
Cr     1.81139645    1.71258145   -0.05486780      15
Co     0.08686947    1.79644934    1.74292729      16
Cr     0.01885805   -1.74813035    1.74131858      17
Cr    -1.72750210    0.06993549   -1.76812605      18
