          18
Lattice="  24.8920   0.0000   0.0000   0.0000  24.8920   0.0000   0.0000   0.0000  24.8920 " ConfE="      -5934.6771" DelE="          0.0000"
Co     0.09831913    0.02284978    3.46935254       1
Co    -3.42888336    0.06376562   -0.00404496       2
Cr     3.70303264    0.02111599   -0.06585090       3
Cr     0.11094611    0.03733593   -3.62349311       4
Cr     0.18340600    3.49354473   -0.09869110       5
Co     0.13504394   -3.57694390   -0.09217942       6
Ni     0.06640752   -1.75655933    1.71920855       7
Ni    -1.68311682   -1.73511717   -0.02944930       8
Cr     0.08831202    1.73237983    1.65021396       9
Cr    -1.71955814    1.66876103   -0.04291375      10
Ni     1.89584536    0.00042935    1.69217267      11
Ni     0.11857083    1.73355591   -1.84837898      12
Ni     0.06872212   -1.74690395   -1.83584390      13
Co    -1.69719337    0.03075215   -1.86719259      14
Cr     1.90253344   -0.03520773   -1.84908699      15
Co     1.87872358    1.70248524   -0.08548474      16
Cr     1.84832035   -1.73423145   -0.09485750      17
Cr     0.00000000    0.00000000    0.00000000      18
          18
Lattice="  24.8920   0.0000   0.0000   0.0000  24.8920   0.0000   0.0000   0.0000  24.8920 " ConfE="      -5934.0457" DelE="          0.6314"
Co     0.08040226    0.01093222    3.42406733       1
Co    -3.38201679    0.04101865   -0.00751008       2
Cr     3.67999356    0.02192856   -0.05225090       3
Cr     0.09844183    0.03886965   -3.60399300       4
Cr     0.21414912    3.60061525   -0.12929349       5
Co     0.15418180   -3.65424552   -0.11263727       6
Ni     0.09526309   -1.89073991    1.74105821       7
Ni    -1.68532918   -1.87604570   -0.05470073       8
Cr     0.19042079    1.87063173    1.66672110       9
Cr    -1.75404601    1.84387732   -0.16597009      10
Ni     1.82934804   -0.00472802    1.67328800      11
Ni     0.11088970    1.71875673   -1.79537515      12
Ni     0.05579995   -1.73577552   -1.79850122      13
Co    -1.66887598    0.02730736   -1.79423807      14
Cr     1.85417018   -0.03547895   -1.79054443      15
Co     1.83582260    1.69543586   -0.06952330      16
Cr     1.76594211   -1.67864195   -0.07695887      17
Cr    -0.71235539    0.05119441    0.73227084      18
          18
Lattice="  24.8920   0.0000   0.0000   0.0000  24.8920   0.0000   0.0000   0.0000  24.8920 " ConfE="      -5934.7656" DelE="         -0.0885"
Co     0.10898034    0.01741544    3.50951515       1
Co    -3.49924499    0.04839698   -0.05551841       2
Cr     3.70087673    0.02091243   -0.06093762       3
Cr     0.11538515    0.03370092   -3.62354918       4
Cr     0.19766811    3.53304241   -0.11281508       5
Co     0.14607531   -3.61254347   -0.10508077       6
Ni     0.08887615   -1.75642668    1.67983697       7
Ni    -1.66463078   -1.73669654   -0.05284282       8
Cr     0.12921875    1.72922579    1.59392854       9
Cr    -1.60431788    1.64380544   -0.11257118      10
Ni     1.85013737   -0.00373571    1.66731530      11
Ni     0.14728775    1.70967788   -1.83799575      12
Ni     0.07876976   -1.72110621   -1.80793281      13
Co    -1.67429768    0.03878149   -1.80534728      14
Cr     1.88801237   -0.04867943   -1.81123402      15
Co     1.85396260    1.68528169   -0.08249224      16
Cr     1.83636827   -1.70568941   -0.10633874      17
Cr    -1.64224650    0.02921931    1.65372696      18
