          18
Lattice="  24.8920   0.0000   0.0000   0.0000  24.8920   0.0000   0.0000   0.0000  24.8920 " ConfE="      -5933.4694" DelE="          0.0000"
Cr    -0.02125654   -3.51834121   -0.03688774       1
Ni    -0.03527014   -0.03447291    3.49593730       2
Cr    -0.01071340    3.60168478   -0.02691420       3
Co    -0.00929101    0.04807809   -3.58628078       4
Ni    -3.59037904    0.00354977   -0.03571051       5
Cr     3.53118924    0.01644403   -0.02035993       6
Cr    -1.74136716   -1.76203125   -0.04246817       7
Ni     1.74181241   -1.76958901    0.00934010       8
Cr    -1.77993654   -0.03273891    1.73769795       9
Cr     1.76176682   -0.02205279    1.77499468      10
Co    -0.01552337   -1.74877886   -1.83417479      11
Co    -0.00009430    1.81946957    1.73577574      12
Co    -0.01679956    1.81315593   -1.78920162      13
Co    -1.79792212    0.07094021   -1.80287780      14
Co     1.77445569    0.01218844   -1.81881289      15
Cr    -1.81772846    1.80103605   -0.01501388      16
Cr     1.77796030    1.79173168   -0.05088685      17
Ni     0.00000000    0.00000000    0.00000000      18
          18
Lattice="  24.8920   0.0000   0.0000   0.0000  24.8920   0.0000   0.0000   0.0000  24.8920 " ConfE="      -5932.8917" DelE="          0.5776"
Cr    -0.03185648   -3.47862416    0.03047387       1
Ni    -0.03035024   -0.02965695    3.49749148       2
Cr    -0.00196396    3.61009321   -0.01342696       3
Co    -0.00743774    0.03216314   -3.59365917       4
Ni    -3.62501210    0.03401210   -0.06486767       5
Cr     3.58606948    0.03121778   -0.06006525       6
Cr    -1.89756035   -1.79241312   -0.21438866       7
Ni     1.84301395   -1.76808297   -0.03094802       8
Cr    -2.01913379    0.08487270    1.81554886       9
Cr     1.93383131    0.01468815    1.80503068      10
Co    -0.00826225   -1.73920393   -1.77103414      11
Co     0.00622159    1.72386310    1.70622271      12
Co    -0.01231023    1.76888099   -1.76373760      13
Co    -1.77596795    0.06596358   -1.76807920      14
Co     1.74953827   -0.00691430   -1.79211196      15
Cr    -1.69011323    1.70364106   -0.00301578      16
Cr     1.64559864    1.66004981   -0.06616369      17
Ni    -0.10999923   -0.97452600    1.07944665      18
          18
Lattice="  24.8920   0.0000   0.0000   0.0000  24.8920   0.0000   0.0000   0.0000  24.8920 " ConfE="      -5933.4292" DelE="          0.0401"
Cr    -0.01940465   -3.56715468   -0.07666875       1
Ni    -0.02623735    0.00830360    3.54518799       2
Cr    -0.00174354    3.63053871   -0.03051500       3
Co    -0.00697362    0.05108520   -3.60044658       4
Ni    -3.61364621    0.02109523   -0.04792617       5
Cr     3.56244396    0.02328528   -0.04436195       6
Cr    -1.72213753   -1.68743307   -0.12794419       7
Ni     1.74376770   -1.73012045   -0.02453719       8
Cr    -1.77826019    0.01901515    1.69497685       9
Cr     1.76921169    0.01923792    1.73326847      10
Co    -0.02006882   -1.71898356   -1.78248467      11
Co     0.01394832    1.74874515    1.68853790      12
Co    -0.00453610    1.79123594   -1.76859968      13
Co    -1.77600460    0.09061713   -1.77915898      14
Co     1.75324827    0.01608597   -1.80098787      15
Cr    -1.72330439    1.73595985   -0.04022185      16
Cr     1.68772434    1.71908362   -0.08314569      17
Ni    -0.01984676   -1.73278124    1.71674189      18
