          18
Lattice="  24.8920   0.0000   0.0000   0.0000  24.8920   0.0000   0.0000   0.0000  24.8920 " ConfE="      -5926.0906" DelE="          0.0000"
Ni    -3.51660988    0.03711891   -0.16041008       1
Ni     0.01231126   -0.01788688    3.46692105       2
Co    -0.04149026   -0.00201318   -3.65602028       3
Cr     3.57631027   -0.00028139   -0.05099322       4
Co    -0.01116124    3.52216052   -0.07471415       5
Cr    -0.00262359   -3.58953927   -0.12936939       6
Co    -1.74009552    1.74184186   -0.10877034       7
Cr    -1.82173170   -1.73824783   -0.12550373       8
Ni     1.76952379    1.77275174   -0.07749356       9
Cr    -0.05464649    1.65185174   -1.88298258      10
Cr    -0.20741291   -1.52099850   -1.91398648      11
Cr     1.80089685   -1.78965090   -0.07749625      12
Co     1.79781085   -0.04363208   -1.84319374      13
Cr    -1.85909467    0.02863235    1.76147664      14
Cr     1.86210700   -0.00736186    1.74833916      15
Cr    -0.00472960    1.79704872    1.73873375      16
Cr     0.01614979   -1.84877695    1.75571166      17
Ni     0.00000000    0.00000000    0.00000000      18
          18
Lattice="  24.8920   0.0000   0.0000   0.0000  24.8920   0.0000   0.0000   0.0000  24.8920 " ConfE="      -5924.9350" DelE="          1.1555"
Ni    -3.49418907    0.04564391   -0.16200322       1
Ni    -0.00111442   -0.01893771    3.51650414       2
Co    -0.04812053   -0.02889875   -3.61605958       3
Cr     3.56503702    0.04195031   -0.07631775       4
Co     0.03081022    3.50321106   -0.05906036       5
Cr     0.03402531   -3.64502222   -0.04295645       6
Co    -1.81112858    1.95413891   -0.04900159       7
Cr    -1.86165687   -1.90810432   -0.03983841       8
Ni     1.15444738    0.99994252   -0.09575463       9
Cr     0.09889605    1.90343467   -1.99304910      10
Cr     0.07429237   -1.87024064   -1.84372551      11
Cr     1.82276292   -1.68431158   -0.08687255      12
Co     1.85491235   -0.11531171   -2.05672725      13
Cr    -1.78816107    0.06284141    1.64621186      14
Cr     1.94658481   -0.00946367    1.93151438      15
Cr    -0.04685042    1.73590131    1.79129458      16
Cr     0.04980062   -1.47422390    1.51415644      17
Ni    -1.07776487    0.03582204   -1.14566233      18
          18
Lattice="  24.8920   0.0000   0.0000   0.0000  24.8920   0.0000   0.0000   0.0000  24.8920 " ConfE="      -5925.8108" DelE="          0.2797"
Ni    -3.60185394    0.05302478   -0.11170648       1
Ni     0.01008146   -0.02054046    3.51909611       2
Co    -0.01502142   -0.01269292   -3.68393448       3
Cr     3.51349081    0.08894845   -0.01994571       4
Co     0.02244663    3.44441607   -0.07274755       5
Cr     0.06002852   -3.63756177   -0.23858086       6
Co    -1.68361558    1.67882455   -0.04505464       7
Cr    -1.81946249   -1.68731317   -0.08255755       8
Ni     0.80325224    0.59268472   -0.02037982       9
Cr     0.06060868    1.72541928   -1.96398353      10
Cr     0.01635672   -1.42439535   -1.63553988      11
Cr     1.89377002   -1.76274843   -0.09839065      12
Co     1.90562426   -0.04511816   -2.03802386      13
Cr    -1.83081131    0.05476042    1.71609582      14
Cr     1.97758690    0.01468868    1.96437727      15
Cr    -0.02624708    1.75382004    1.84072319      16
Cr     0.07424447   -1.45757444    1.50229749      17
Ni    -1.83300229    0.06657023   -1.89128513      18
