          18
Lattice="  24.8920   0.0000   0.0000   0.0000  24.8920   0.0000   0.0000   0.0000  24.8920 " ConfE="      -5936.8052" DelE="          0.0000"
Co     3.47820135   -0.05912873   -0.01528175       1
Ni    -3.60558104   -0.02938868   -0.05530414       2
Co    -0.01105868   -0.01587762    3.40616408       3
Ni    -0.00788817   -3.54912725   -0.06372060       4
Cr    -0.05587070    3.46192146    0.00529112       5
Cr    -0.01052449    0.11053800   -3.58259938       6
Ni     1.73907878    1.72187385   -0.00185094       7
Cr     0.11995345   -1.72333103    1.69152001       8
Cr     1.74204917   -1.71872617   -0.03171051       9
Co    -0.03000472    1.74154470    1.74388316      10
Co    -1.82890095   -0.02572143    1.71497932      11
Co    -1.74383850   -1.76725284   -0.06368131      12
Co     1.73216303   -0.03814828   -1.82318953      13
Cr    -1.78201776    1.72074815    0.01999440      14
Co    -1.81119006   -0.01815504   -1.81836406      15
Cr    -0.03063900   -1.69313844   -1.82596476      16
Co    -0.06352315    1.72602934   -1.79818480      17
Ni     0.00000000    0.00000000    0.00000000      18
          18
Lattice="  24.8920   0.0000   0.0000   0.0000  24.8920   0.0000   0.0000   0.0000  24.8920 " ConfE="      -5936.1997" DelE="          0.6054"
Co     3.46396394   -0.04304330    0.00218073       1
Ni    -3.59650852   -0.03240209   -0.05511489       2
Co    -0.02734775   -0.00597400    3.39598738       3
Ni    -0.03668014   -3.65393364   -0.09666248       4
Cr    -0.06885210    3.52756156   -0.01967658       5
Cr    -0.01322803    0.10651579   -3.59149991       6
Ni     1.76089052    1.85033044   -0.04780383       7
Cr    -0.07226980   -1.96684978    1.66943840       8
Cr     1.75847756   -1.88803334   -0.14417638       9
Co    -0.10076500    1.91371383    1.74186546      10
Co    -1.75099724   -0.02752812    1.66105871      11
Co    -1.68857093   -1.76754851   -0.06352707      12
Co     1.69156445   -0.04043571   -1.74488124      13
Cr    -1.67776117    1.66253028    0.03114907      14
Co    -1.76989882   -0.02578945   -1.78683583      15
Cr    -0.02239953   -1.62308489   -1.68201038      16
Co    -0.07171165    1.69262436   -1.71459826      17
Ni     0.90381056   -0.05813123    0.95653922      18
          18
Lattice="  24.8920   0.0000   0.0000   0.0000  24.8920   0.0000   0.0000   0.0000  24.8920 " ConfE="      -5936.7516" DelE="          0.0536"
Co     3.55218053   -0.04460292   -0.04076492       1
Ni    -3.62092966   -0.02813176   -0.05724068       2
Co    -0.05249912   -0.01082237    3.46970692       3
Ni    -0.02094439   -3.59161137   -0.07968014       4
Cr    -0.07060888    3.48343552   -0.00345682       5
Cr    -0.01997466    0.11407126   -3.59920830       6
Ni     1.70939963    1.71458843   -0.02977711       7
Cr     0.01584897   -1.72221275    1.56330584       8
Cr     1.70587872   -1.72040448   -0.08199574       9
Co    -0.06143968    1.71505459    1.69158954      10
Co    -1.77549345   -0.02042532    1.66944866      11
Co    -1.70849601   -1.73952642   -0.07161219      12
Co     1.70083899   -0.05535093   -1.75311813      13
Cr    -1.72003797    1.66745958    0.02084151      14
Co    -1.80518933   -0.01810892   -1.80543535      15
Cr    -0.03899525   -1.59715470   -1.70333654      16
Co    -0.09057083    1.67684419   -1.73188236      17
Ni     1.72921860   -0.02680135    1.70640007      18
