          23
Lattice="  24.8920   0.0000   0.0000   0.0000  24.8920   0.0000   0.0000   0.0000  24.8920 " ConfE="      -5950.4086" DelE="          0.0000"
Ni    -2.60022996   -0.03797299    2.68914307       1
Cr     2.58068083    0.06060678   -2.49085724       2
Ni    -2.58593269   -1.82188020    0.92938480       3
Ni    -0.86005084   -1.81410068    2.69832442       4
Ni    -0.84421544    1.72228647    2.70702254       5
Co    -2.55786841    1.72351649    0.89344630       6
Ni     0.90786930   -1.79010205   -2.56606082       7
Ni     2.64701633   -1.79910202   -0.81089524       8
Co     0.89128603    1.70625055   -2.54566921       9
Ni     2.66043074    1.78136700   -0.77480862      10
Co    -0.86757873   -3.63803839    0.93043487      11
Co    -0.86055760    3.58359962    0.94173311      12
Co     0.89317101    3.56034207   -0.85043886      13
Ni     0.91898794   -3.63584579   -0.83288021      14
Co    -2.58056945   -0.02995911   -0.81679732      15
Cr     0.86768806   -0.11193567    2.58197117      16
Cr     2.59983637   -0.03247212    0.87190422      17
Co    -0.83477574   -0.03460873   -2.55968051      18
Ni     0.00000000    0.00000000    0.00000000      19
Co    -0.93320324   -1.97072916   -0.87850810      20
Co     0.94143439   -1.92004312    0.97870248      21
Ni     0.91506647    1.89573147    1.00083047      22
Cr    -0.97161871    1.89103896   -0.89538318      23
          23
Lattice="  24.8920   0.0000   0.0000   0.0000  24.8920   0.0000   0.0000   0.0000  24.8920 " ConfE="      -5950.3529" DelE="          0.0557"
Ni    -2.62444996   -0.04365587    2.70675077       1
Cr     2.60209966    0.06528158   -2.53063940       2
Ni    -2.57953620   -1.80265607    0.92810494       3
Ni    -0.86623036   -1.80501311    2.69632348       4
Ni    -0.84668168    1.68963038    2.69465794       5
Co    -2.55658120    1.71109124    0.89571110       6
Ni     0.89778341   -1.76026612   -2.55343020       7
Ni     2.65444466   -1.78060044   -0.80348848       8
Co     0.87630541    1.69834746   -2.54335164       9
Ni     2.66533728    1.76462561   -0.77399563      10
Co    -0.86839680   -3.63040963    0.92829670      11
Co    -0.86064081    3.57637752    0.94752727      12
Co     0.88694634    3.53981549   -0.83897042      13
Ni     0.92037388   -3.60002123   -0.82302951      14
Co    -2.58317665   -0.02379760   -0.82266968      15
Cr     0.87360429   -0.12721489    2.57519231      16
Cr     2.64839451   -0.02742999    0.89662917      17
Co    -0.87769461   -0.03015217   -2.60900992      18
Ni     0.23383386   -0.00165530   -0.27380335      19
Co    -0.94784840   -1.94706728   -0.87104386      20
Co     0.91961144   -1.86767449    0.99681438      21
Ni     0.89663133    1.85379360    1.00224186      22
Cr    -1.00711914    1.87450827   -0.87189755      23
          23
Lattice="  24.8920   0.0000   0.0000   0.0000  24.8920   0.0000   0.0000   0.0000  24.8920 " ConfE="      -5950.7777" DelE="         -0.3692"
Ni    -2.63175797   -0.04547015    2.71336568       1
Cr     2.65426059    0.03364660   -2.61992693       2
Ni    -2.59667605   -1.80190528    0.94113133       3
Ni    -0.87978795   -1.80403871    2.71824830       4
Ni    -0.85546699    1.68297877    2.70626566       5
Co    -2.56675799    1.70894177    0.90732332       6
Ni     0.91174603   -1.78234974   -2.59196772       7
Ni     2.66301046   -1.78590383   -0.79782649       8
Co     0.89081917    1.73750707   -2.60229009       9
Ni     2.66259675    1.74319803   -0.79672523      10
Co    -0.86710965   -3.60718692    0.93226583      11
Co    -0.84597489    3.54864850    0.94628444      12
Co     0.88292285    3.50289982   -0.82320725      13
Ni     0.90715545   -3.55393216   -0.80091794      14
Co    -2.59186683   -0.00423080   -0.82243927      15
Cr     0.88442162   -0.12291194    2.66198450      16
Cr     2.71423440   -0.01981901    0.94518936      17
Co    -0.89168500   -0.03046537   -2.65735169      18
Ni     0.82105950   -0.02626857   -0.77998541      19
Co    -0.90025583   -1.78347055   -0.82630426      20
Co     0.87952249   -1.71811095    1.00162356      21
Ni     0.84015559    1.70716346    0.95640445      22
Cr    -0.95787158    1.71261786   -0.85583259      23
