          18
Lattice="  24.8920   0.0000   0.0000   0.0000  24.8920   0.0000   0.0000   0.0000  24.8920 " ConfE="      -5936.6107" DelE="          0.0000"
Co     0.02535992   -0.00310289    3.59054169       1
Ni     3.47731038   -0.00896390    0.01899350       2
Co    -0.03598508    0.00735381   -3.53709157       3
Co    -3.60725992    0.01003199   -0.01230472       4
Cr    -0.00840096    3.48907119    0.04755630       5
Co    -0.00180715   -3.50792594    0.00105959       6
Ni     0.00361336    1.72775960    1.81039082       7
Ni    -0.01090947   -1.70316740    1.76894803       8
Co     1.72994860    1.79609549    0.04206420       9
Co     1.70551358   -1.79238192    0.00744221      10
Co    -1.83985561    0.01854630    1.75529989      11
Co     1.74980626    0.01295466   -1.79144141      12
Ni    -1.81958245    0.05284475   -1.76384725      13
Co    -1.81610585    1.76523648    0.03111735      14
Cr    -1.69602908   -1.69560469   -0.05428212      15
Ni    -0.02719238    1.77736513   -1.76325955      16
Cr    -0.01742895   -1.67873907   -1.79854376      17
Co     0.00000000    0.00000000    0.00000000      18
          18
Lattice="  24.8920   0.0000   0.0000   0.0000  24.8920   0.0000   0.0000   0.0000  24.8920 " ConfE="      -5932.4258" DelE="          4.1849"
Co    -0.00698582   -1.12523812    3.13825300       1
Ni     3.55605470   -0.03605444    0.01990467       2
Co    -0.04438475   -0.00786688   -3.53551544       3
Co    -3.71802088   -0.07062254   -0.03320379       4
Cr    -0.03484558    3.56490301    0.01311046       5
Co     0.00608204   -3.41255567    0.04860191       6
Ni     0.21647500    1.11214158    2.73854012       7
Ni     0.14832543   -0.85409028    0.80722377       8
Co     1.96881423    1.81626144   -0.07613777       9
Co     1.98662862   -1.95319800   -0.02665448      10
Co    -1.94121143    0.04150347    1.75994857      11
Co     1.70618443   -0.02961702   -1.70887710      12
Ni    -1.82830921    0.07142362   -1.72978652      13
Co    -2.27546958    1.81885885   -0.05067368      14
Cr    -1.87564318   -1.68874497   -0.05874735      15
Ni    -0.01894443    1.76936540   -1.80539474      16
Cr    -0.01919860   -1.63122428   -1.72004405      17
Co    -0.16805814    1.46104076    0.55767315      18
          18
Lattice="  24.8920   0.0000   0.0000   0.0000  24.8920   0.0000   0.0000   0.0000  24.8920 " ConfE="      -5936.7293" DelE="         -0.1186"
Co    -0.01301979   -1.74938758    1.74248857       1
Ni     3.48448493   -0.00948353    0.01698714       2
Co    -0.03531682   -0.00158503   -3.52966933       3
Co    -3.58856167    0.00689087   -0.00852305       4
Cr    -0.00812446    3.49518454    0.06822870       5
Co    -0.00897505   -3.51020748    0.00085601       6
Ni    -0.00877637    0.02354024    3.50423375       7
Ni     0.03057032    0.02246635    0.04864869       8
Co     1.74624493    1.81348390    0.04002434       9
Co     1.71135269   -1.80544844    0.01759270      10
Co    -1.83159197    0.02207934    1.73658306      11
Co     1.75127936    0.01088255   -1.78690629      12
Ni    -1.80670378    0.04044622   -1.75561159      13
Co    -1.81985652    1.77735751    0.02287101      14
Cr    -1.70228548   -1.73414633   -0.03380376      15
Ni    -0.02528065    1.77842723   -1.76153954      16
Cr    -0.02517627   -1.69833742   -1.79668228      17
Co     0.00154900    1.81059815    1.75375243      18
