          18
Lattice="  24.8920   0.0000   0.0000   0.0000  24.8920   0.0000   0.0000   0.0000  24.8920 " ConfE="      -5934.6771" DelE="          0.0000"
Ni     3.52770211   -0.02992106   -0.01598309       1
Ni    -0.00224585   -0.02270287   -3.54991948       2
Cr    -0.02784808    3.42858106   -0.01947180       3
Cr    -0.05124133    0.00609964    3.56233715       4
Co    -3.60333075   -0.02573215   -0.03528778       5
Cr    -0.03347200   -3.60770219   -0.01632115       6
Ni     1.75619162   -0.00811477    1.75227753       7
Ni    -0.01190214    1.74880426    1.74925975       8
Ni     1.77817777   -0.00847890   -1.76464094       9
Ni    -1.79649770   -0.02105125    1.75429730      10
Ni    -1.76814747   -1.82061544   -0.02054509      11
Ni     0.01025819   -1.79582525   -1.77178221      12
Ni    -1.78713464   -0.02339765   -1.78067197      13
Co     0.03241124    1.79040389   -1.73923660      14
Co     1.80079401   -1.86696770    0.03725553      15
Co    -0.02310315   -1.82319681    1.79799496      16
Co    -1.86498729    1.76527747    0.00263041      17
Ni     0.00000000    0.00000000    0.00000000      18
          18
Lattice="  24.8920   0.0000   0.0000   0.0000  24.8920   0.0000   0.0000   0.0000  24.8920 " ConfE="      -5934.1729" DelE="          0.5042"
Ni     3.51416174   -0.04771628   -0.00656785       1
Ni    -0.00111371   -0.05514174   -3.59476551       2
Cr    -0.03264191    3.35360228   -0.00528782       3
Cr    -0.06890773   -0.01376907    3.63387413       4
Co    -3.60335053   -0.01204998   -0.02947146       5
Cr    -0.02501756   -3.62164886   -0.01670105       6
Ni     1.78328527   -0.05469153    1.87922039       7
Ni    -0.04310349    1.75692800    1.92824679       8
Ni     1.82513867   -0.07922718   -1.88767307       9
Ni    -1.77325535   -0.01296920    1.75321002      10
Ni    -1.72867568   -1.78751361   -0.01023827      11
Ni     0.02189958   -1.77168444   -1.75397663      12
Ni    -1.75612395   -0.02191763   -1.76268690      13
Co    -0.06839603    1.82598631   -1.97699940      14
Co     1.77841232   -1.83700859    0.04783346      15
Co    -0.01680190   -1.79778357    1.79758722      16
Co    -1.79394485    1.75644846   -0.00831048      17
Ni     0.61585342    0.70712555   -0.04240695      18
          18
Lattice="  24.8920   0.0000   0.0000   0.0000  24.8920   0.0000   0.0000   0.0000  24.8920 " ConfE="      -5935.0691" DelE="         -0.3920"
Ni     3.54741091   -0.05520922   -0.01681583       1
Ni    -0.00058686   -0.03781603   -3.56501510       2
Cr    -0.08973754    3.54840844   -0.00323466       3
Cr    -0.06290891    0.00853037    3.59958839       4
Co    -3.60849935   -0.02240329   -0.03487599       5
Cr    -0.02953484   -3.63704893   -0.01887407       6
Ni     1.71306979   -0.03694088    1.75413135       7
Ni    -0.04243684    1.74097267    1.74498002       8
Ni     1.75751712   -0.03948961   -1.76912818       9
Ni    -1.75924655   -0.02585987    1.72218607      10
Ni    -1.74144763   -1.81248936   -0.01398230      11
Ni     0.01302476   -1.78272877   -1.73624345      12
Ni    -1.75794727   -0.02936121   -1.74921110      13
Co    -0.02355978    1.77508005   -1.78295141      14
Co     1.78525469   -1.85178519    0.04442036      15
Co    -0.02343869   -1.82041546    1.78901944      16
Co    -1.82258969    1.76257798   -0.00678067      17
Ni     1.70660484    1.70550024   -0.01065661      18
