          18
Lattice="  24.8920   0.0000   0.0000   0.0000  24.8920   0.0000   0.0000   0.0000  24.8920 " ConfE="      -5950.0026" DelE="          0.0000"
Ni    -0.03109445   -0.03704544   -3.45188118       1
Cr     0.00315304    3.53859843    0.06087735       2
Ni    -0.03587314   -0.02210350    3.62929337       3
Cr     0.01258115   -3.59869999    0.06304658       4
Cr     3.48562966    0.00206264    0.01017430       5
Ni    -3.55610651   -0.01704414    0.05587408       6
Cr     1.77693988    0.06864582   -1.73481701       7
Ni    -1.76281258   -0.01396750   -1.70793105       8
Co     1.70764656    1.76792909    0.00251911       9
Ni    -1.75487810    1.74622605    0.02522102      10
Co     0.04775954   -1.86009010   -1.70135078      11
Ni    -0.02730179    1.76208132    1.84043766      12
Ni    -0.01937811   -1.79938358    1.83233360      13
Ni     1.75559747   -1.78566468    0.05390086      14
Ni    -1.76576707   -1.80891059    0.06678838      15
Ni     1.73183580   -0.02019251    1.83907705      16
Cr    -1.82568894    0.01291769    1.82026629      17
Ni     0.00000000    0.00000000    0.00000000      18
          18
Lattice="  24.8920   0.0000   0.0000   0.0000  24.8920   0.0000   0.0000   0.0000  24.8920 " ConfE="      -5949.4120" DelE="          0.5906"
Ni    -0.04723152   -0.01185912   -3.38518632       1
Cr    -0.00869624    3.45665705    0.02856348       2
Ni    -0.03864587   -0.01668823    3.63106635       3
Cr     0.01173050   -3.60069769    0.05954983       4
Cr     3.53868370    0.01135586    0.05390074       5
Ni    -3.62563917   -0.03715330    0.07427244       6
Cr     1.96482594   -0.00186931   -1.79214237       7
Ni    -1.94359039   -0.05569883   -1.72957204       8
Co     1.87324852    1.82045129    0.09030135       9
Ni    -1.87679111    1.73020762    0.05972958      10
Co     0.04212404   -1.81791195   -1.67692715      11
Ni    -0.04709118    1.70228306    1.76617092      12
Ni    -0.02630402   -1.75201145    1.80100735      13
Ni     1.73542116   -1.72136379    0.04857190      14
Ni    -1.76372310   -1.77551467    0.05734256      15
Ni     1.73629812   -0.00677598    1.83182860      16
Cr    -1.84561625   -0.01042447    1.80906532      17
Ni     0.05603873    0.60276807   -0.72359294      18
          18
Lattice="  24.8920   0.0000   0.0000   0.0000  24.8920   0.0000   0.0000   0.0000  24.8920 " ConfE="      -5950.1252" DelE="         -0.1226"
Ni    -0.02285936   -0.07304124   -3.50077748       1
Cr    -0.00443435    3.55632284    0.06981864       2
Ni    -0.03460355   -0.02151090    3.64973845       3
Cr     0.00557085   -3.61561777    0.07039780       4
Cr     3.53223081   -0.01476513    0.04182829       5
Ni    -3.57376516   -0.02795081    0.06270761       6
Cr     1.78271532   -0.00233213   -1.67693411       7
Ni    -1.75497075   -0.05482254   -1.67872688       8
Co     1.72494149    1.72074752    0.04114784       9
Ni    -1.76057151    1.69362337    0.06022630      10
Co     0.05086788   -1.81225203   -1.66996525      11
Ni    -0.03601170    1.73443577    1.80941529      12
Ni    -0.02680680   -1.77968871    1.83048892      13
Ni     1.73124254   -1.76008779    0.07098739      14
Ni    -1.74261219   -1.78744645    0.08237055      15
Ni     1.71109207   -0.02276963    1.82532152      16
Cr    -1.83425681   -0.00755879    1.84501418      17
Ni    -0.01583422    1.68199803   -1.69578482      18
