          18
Lattice="  24.8920   0.0000   0.0000   0.0000  24.8920   0.0000   0.0000   0.0000  24.8920 " ConfE="      -5929.5960" DelE="          0.0000"
Ni    -0.04530426    0.07061173    3.55796031       1
Ni    -3.55425463    0.07370276    0.04880611       2
Ni    -0.06036605    0.01174781   -3.55485848       3
Co    -0.00697250    3.57365709    0.02873212       4
Cr     3.48379256   -0.03614900    0.08478222       5
Cr    -0.07648961   -3.51804991    0.04152892       6
Ni    -1.76522292    0.10296230    1.79029047       7
Ni    -1.74500447    1.83738524    0.07065259       8
Co     1.70779341    0.01688954    1.75773079       9
Co     1.75792931    1.77202875    0.01814288      10
Co    -0.00524695   -1.80340826    1.78365796      11
Cr     1.71784766   -1.76905552    0.02797721      12
Co    -1.76698715   -1.75364674    0.01877322      13
Cr     1.69146639   -0.00358093   -1.71631151      14
Cr    -0.08245829   -1.77032621   -1.77498678      15
Co    -0.01428177    1.79712944   -1.76311133      16
Cr    -1.76364988    0.07804759   -1.68667089      17
Co     0.00000000    0.00000000    0.00000000      18
          18
Lattice="  24.8920   0.0000   0.0000   0.0000  24.8920   0.0000   0.0000   0.0000  24.8920 " ConfE="      -5928.3193" DelE="          1.2767"
Ni    -0.05596191    0.06919447    3.51685684       1
Ni    -3.61313747    0.06570109    0.03332791       2
Ni    -0.07515835    0.01599379   -3.55451047       3
Co    -0.02081419    3.53060398    0.05024760       4
Cr     3.59606593   -0.06272416    0.04147009       5
Cr    -0.06805181   -3.53718756    0.08412532       6
Ni    -1.91714026    0.07108773    1.80996096       7
Ni    -1.92610408    1.88176911    0.04546791       8
Co     1.87514139   -0.05053487    1.76904101       9
Co     1.95916361    1.80258186   -0.06450308      10
Co    -0.00232055   -1.68297928    1.70961333      11
Cr     1.70135992   -1.70583159    0.05773277      12
Co    -1.74113913   -1.67710450    0.00582842      13
Cr     1.53177549    0.03234571   -1.59258439      14
Cr    -0.09107285   -1.73225859   -1.69441659      15
Co    -0.02433298    1.75160509   -1.63991372      16
Cr    -1.70479754    0.08770579   -1.60741209      17
Co     0.05144987    1.06053885    0.97227239      18
          18
Lattice="  24.8920   0.0000   0.0000   0.0000  24.8920   0.0000   0.0000   0.0000  24.8920 " ConfE="      -5928.9589" DelE="          0.6371"
Ni    -0.04396023    0.05409824    3.58582758       1
Ni    -3.56247964    0.06992946    0.03539280       2
Ni    -0.07591554    0.00535642   -3.57042670       3
Co    -0.00930571    3.62062346    0.00921313       4
Cr     3.51919130   -0.05034199    0.09380283       5
Cr    -0.06633439   -3.57685743    0.05409631       6
Ni    -1.74774284    0.07732148    1.75417459       7
Ni    -1.76566780    1.83069020    0.03260868       8
Co     1.66318008   -0.00277722    1.71889829       9
Co     1.73461074    1.75316867    0.00435783      10
Co    -0.00104992   -1.78810289    1.74612547      11
Cr     1.68633757   -1.75548607    0.04847696      12
Co    -1.71030378   -1.71119105   -0.01308272      13
Cr     1.48972344    0.01425142   -1.59073108      14
Cr    -0.09245267   -1.77908561   -1.73499144      15
Co    -0.03122156    1.77855861   -1.71955102      16
Cr    -1.69561853    0.05857569   -1.65510493      17
Co    -0.03176812    1.86549039    1.77079132      18
