          18
Lattice="  24.8920   0.0000   0.0000   0.0000  24.8920   0.0000   0.0000   0.0000  24.8920 " ConfE="      -5924.1671" DelE="          0.0000"
Cr     0.01459092    0.09534761    3.36994445       1
Cr     0.06576120    3.37102123    0.08916983       2
Co     0.00276567   -0.06534304   -3.61737719       3
Ni     0.03177828   -3.64758758   -0.07252760       4
Ni    -3.53977727   -0.10038383   -0.09322466       5
Ni     3.54004034   -0.07996563   -0.06634774       6
Co    -1.74290410   -0.02566044    1.68422802       7
Cr     1.74808871   -0.01348702    1.67091259       8
Cr    -1.71639258    1.70620198   -0.00498083       9
Co     1.74211600    1.71290741    0.01529125      10
Ni     0.02215722   -1.85044485    1.71533408      11
Ni     0.03543625    1.72342410   -1.84926734      12
Cr     0.04391097   -1.83297328   -1.80167812      13
Cr    -1.71653065   -1.84326047   -0.08544537      14
Co     1.76501234   -1.84049620   -0.07045003      15
Cr    -1.71196909   -0.03467845   -1.82979369      16
Cr     1.73205571   -0.07951309   -1.79309112      17
Co     0.00000000    0.00000000    0.00000000      18
          18
Lattice="  24.8920   0.0000   0.0000   0.0000  24.8920   0.0000   0.0000   0.0000  24.8920 " ConfE="      -5923.5820" DelE="          0.5851"
Cr     0.00207288    0.10422182    3.34488585       1
Cr     0.06224864    3.41247667    0.08750707       2
Co    -0.00587040   -0.04758622   -3.58659741       3
Ni     0.02948099   -3.66212336   -0.05678439       4
Ni    -3.58627749   -0.12190491   -0.10796252       5
Ni     3.60715901   -0.08553581   -0.07478586       6
Co    -1.90775265   -0.08673581    1.69626853       7
Cr     1.87629328   -0.06693866    1.62868198       8
Cr    -1.85925306    1.77052638   -0.04374540       9
Co     1.92507806    1.76664837   -0.07913741      10
Ni     0.01607712   -1.78021375    1.68479176      11
Ni     0.04385746    1.73771742   -1.76664755      12
Cr     0.03409774   -1.81131229   -1.74538903      13
Cr    -1.70048345   -1.81117192   -0.05558555      14
Co     1.75853508   -1.82061149   -0.06278058      15
Cr    -1.62155070   -0.01719839   -1.69044597      16
Cr     1.66437695   -0.06687547   -1.64193689      17
Co     0.00495642    0.88154526    0.83353845      18
          18
Lattice="  24.8920   0.0000   0.0000   0.0000  24.8920   0.0000   0.0000   0.0000  24.8920 " ConfE="      -5924.2190" DelE="         -0.0518"
Cr     0.02906618   -0.04836189    3.49418836       1
Cr     0.07837070    3.46962086   -0.02334526       2
Co    -0.00138504   -0.06801298   -3.62650826       3
Ni     0.03109827   -3.66643300   -0.07329815       4
Ni    -3.55649813   -0.10998971   -0.10390156       5
Ni     3.57462576   -0.09309268   -0.06817875       6
Co    -1.71904949   -0.06926009    1.62935444       7
Cr     1.73441911   -0.05161293    1.60677945       8
Cr    -1.70565482    1.66091697   -0.02936037       9
Co     1.75553008    1.64077579   -0.04074268      10
Ni     0.03069729   -1.82626740    1.69043549      11
Ni     0.03052099    1.69429140   -1.81197643      12
Cr     0.03898563   -1.84161076   -1.79398879      13
Cr    -1.67841959   -1.80394118   -0.08989023      14
Co     1.74638377   -1.81832596   -0.08303035      15
Cr    -1.65230255   -0.05412349   -1.78712518      16
Cr     1.67705138   -0.10271015   -1.71589867      17
Co     0.02692931    1.64084456    1.66480712      18
