          18
Lattice="  24.8920   0.0000   0.0000   0.0000  24.8920   0.0000   0.0000   0.0000  24.8920 " ConfE="      -5947.8768" DelE="          0.0000"
Co     0.00975230   -3.56609147   -0.04121347       1
Co     0.02624087   -0.04818595   -3.52257106       2
Cr    -0.00432182    0.01688545    3.54089362       3
Co     0.00583699    3.59355945    0.00220490       4
Cr     3.53283561   -0.04838525   -0.01780051       5
Cr    -3.51494633   -0.03003403   -0.00666090       6
Cr     1.64970039   -1.80309432   -0.07196415       7
Cr    -1.58406834   -1.84418270   -0.11701290       8
Ni    -0.00257851    1.80566664   -1.76319325       9
Cr     1.70323417   -0.04797494   -1.75172257      10
Co    -1.73718421   -0.02634784   -1.75609755      11
Ni     1.79330780   -0.01738837    1.78246702      12
Co     0.02016579   -1.77768617    1.78511551      13
Cr     0.01132684    1.80251670    1.77487710      14
Cr    -1.76846385   -0.00031785    1.74051328      15
Co     1.78680056    1.76501960    0.02032098      16
Cr    -1.77178062    1.84073587   -0.03139685      17
Co     0.00000000    0.00000000    0.00000000      18
          18
Lattice="  24.8920   0.0000   0.0000   0.0000  24.8920   0.0000   0.0000   0.0000  24.8920 " ConfE="      -5947.0874" DelE="          0.7894"
Co     0.00846978   -3.48327068   -0.06440439       1
Co     0.02566702   -0.08382611   -3.44500666       2
Cr     0.00193610    0.01505117    3.53537772       3
Co     0.01627952    3.57934432   -0.00235367       4
Cr     3.61498374   -0.03281184   -0.00220754       5
Cr    -3.62115179   -0.01623349    0.01261682       6
Cr     1.91155584   -1.88421514    0.00992386       7
Cr    -1.83834279   -1.89388741   -0.04077086       8
Ni     0.00343581    1.72665451   -1.71629589       9
Cr     1.87600723    0.02883128   -1.75274470      10
Co    -1.88705869    0.01466547   -1.77551205      11
Ni     1.81375990   -0.03644302    1.75206991      12
Co     0.02612255   -1.72927472    1.71885994      13
Cr     0.01596700    1.69725743    1.68272457      14
Cr    -1.71718736   -0.04573919    1.63310532      15
Co     1.79694245    1.73704635    0.02589371      16
Cr    -1.75131900    1.77181256   -0.04557956      17
Co     0.04002769   -0.84763466   -0.74821568      18
          18
Lattice="  24.8920   0.0000   0.0000   0.0000  24.8920   0.0000   0.0000   0.0000  24.8920 " ConfE="      -5947.9331" DelE="         -0.0563"
Co     0.01139991   -3.60857772   -0.01217173       1
Co     0.01438139   -0.00570902   -3.57467824       2
Cr    -0.00444761    0.03069228    3.57406911       3
Co     0.00751167    3.59308492   -0.00204799       4
Cr     3.56897552   -0.03539372   -0.00407967       5
Cr    -3.57466387   -0.02585883    0.00257177       6
Cr     1.65741706   -1.73980337   -0.00941614       7
Cr    -1.60087861   -1.76161385   -0.03648785       8
Ni    -0.00417557    1.75238905   -1.73922423       9
Cr     1.71089725   -0.01688212   -1.70445959      10
Co    -1.74112114   -0.00129369   -1.72523862      11
Ni     1.77473078   -0.00655765    1.77673931      12
Co     0.01958938   -1.74017599    1.74347828      13
Cr     0.00689043    1.76712048    1.74711728      14
Cr    -1.72768720    0.00113596    1.69631088      15
Co     1.74696061    1.71651367    0.02317912      16
Cr    -1.73464236    1.76798871   -0.02069329      17
Co     0.01271673   -1.76613007   -1.75938176      18
