          18
Lattice="  24.8920   0.0000   0.0000   0.0000  24.8920   0.0000   0.0000   0.0000  24.8920 " ConfE="      -5935.5496" DelE="          0.0000"
Ni     0.03789862   -0.03139072   -3.51159052       1
Ni    -3.47477499    0.01418658    0.01434271       2
Co     0.05079395    3.53145974   -0.00528812       3
Co     0.01812009   -0.01667296    3.60103963       4
Co     0.02382136   -3.58927277    0.00216538       5
Co     3.58986922   -0.03556446    0.00876842       6
Ni     0.00847427    1.72614814   -1.75522410       7
Co    -1.74150658    1.80761409   -0.00655528       8
Ni    -1.73175288    0.00228383    1.82322546       9
Co    -1.74139775   -1.78397606   -0.01996084      10
Co     0.08211693   -1.81401044   -1.71516923      11
Ni     0.04888400    1.74005174    1.82337880      12
Cr     1.83168083   -0.09966181   -1.68711526      13
Co     1.84408240    1.75503420   -0.00117962      14
Cr     0.05591922   -1.79343928    1.74283193      15
Co     1.84123341   -1.81479579    0.03708897      16
Co     1.80502638   -0.01780206    1.77953149      17
Ni     0.00000000    0.00000000    0.00000000      18
          18
Lattice="  24.8920   0.0000   0.0000   0.0000  24.8920   0.0000   0.0000   0.0000  24.8920 " ConfE="      -5934.9665" DelE="          0.5832"
Ni     0.03760401   -0.03058198   -3.43864958       1
Ni    -3.42720595    0.00779627   -0.00925842       2
Co     0.06662665    3.59021230    0.00601699       3
Co     0.00960133   -0.00392031    3.59269412       4
Co     0.03159518   -3.64593062    0.01984992       5
Co     3.61339920   -0.04077682    0.01033979       6
Ni     0.04604222    1.88856842   -1.78507050       7
Co    -1.75978738    1.96752869    0.01800428       8
Ni    -1.69147843    0.01462903    1.74038242       9
Co    -1.79562573   -1.98940091    0.04793611      10
Co     0.12758409   -1.97343633   -1.74035540      11
Ni     0.04514187    1.74980879    1.78962364      12
Cr     1.74263582   -0.05849878   -1.56977489      13
Co     1.79801668    1.71042792   -0.01863933      14
Cr     0.07427109   -1.69009646    1.63505370      15
Co     1.82541363   -1.81316278    0.02725312      16
Co     1.75019472   -0.02623872    1.73484738      17
Ni    -0.69713997   -0.04671036   -0.65945224      18
          18
Lattice="  24.8920   0.0000   0.0000   0.0000  24.8920   0.0000   0.0000   0.0000  24.8920 " ConfE="      -5935.0104" DelE="          0.5392"
Ni     0.01937936   -0.02270756   -3.44874765       1
Ni    -3.44488120    0.00932383   -0.00427732       2
Co     0.07044007    3.60942565    0.01430626       3
Co     0.01076880   -0.00771591    3.59071051       4
Co     0.04280413   -3.66492770    0.02448984       5
Co     3.59805500   -0.04145572    0.00526349       6
Ni     0.04661047    1.92080816   -1.78636122       7
Co    -1.74490111    1.98437953    0.03917741       8
Ni    -1.65657732    0.00041266    1.68561344       9
Co    -1.75746574   -1.98925219    0.07482228      10
Co     0.12673795   -1.96607965   -1.72501579      11
Ni     0.05173693    1.74275011    1.77827209      12
Cr     1.67027805   -0.04440214   -1.53631021      13
Co     1.78560319    1.71317174   -0.01803154      14
Cr     0.08990631   -1.73312661    1.67303762      15
Co     1.79928759   -1.80492954    0.03695096      16
Co     1.74521678   -0.03051310    1.73818768      17
Ni    -0.97224561   -0.02176173   -0.94494975      18
