          18
Lattice="  24.8920   0.0000   0.0000   0.0000  24.8920   0.0000   0.0000   0.0000  24.8920 " ConfE="      -5937.7615" DelE="          0.0000"
Co    -3.44229914    0.02622390   -0.07228991       1
Co     0.00727552    0.00759807    3.47333865       2
Cr     3.56226941   -0.03328357   -0.05734519       3
Co     0.02428855    0.02686565   -3.63682978       4
Cr     0.04168434   -3.54420658   -0.02463671       5
Co     0.00370662    3.50923045   -0.04438257       6
Co    -1.73579211   -1.75974715   -0.03427781       7
Cr    -1.77273534    1.70507399   -0.04295488       8
Cr     0.01457886   -1.75557839    1.67952023       9
Cr    -0.01505966    1.70100319    1.78145420      10
Co    -1.72672033   -0.00134055   -1.86882295      11
Co     1.80838019    0.00710966    1.72054586      12
Cr     1.76568802   -0.01449489   -1.84179297      13
Cr    -0.01716151   -1.74617071   -1.82729093      14
Cr     0.01605239    1.73928082   -1.82162936      15
Co     1.79627320   -1.75570015   -0.10599450      16
Ni     1.80836219    1.77848425   -0.02271775      17
Ni     0.00000000    0.00000000    0.00000000      18
          18
Lattice="  24.8920   0.0000   0.0000   0.0000  24.8920   0.0000   0.0000   0.0000  24.8920 " ConfE="      -5937.1919" DelE="          0.5696"
Co    -3.46204758    0.00989363   -0.06205228       1
Co     0.01749789   -0.01239266    3.46485368       2
Cr     3.57964090   -0.03514550   -0.03932576       3
Co     0.01956078    0.00835807   -3.62953746       4
Cr     0.03724281   -3.62963458   -0.07254928       5
Co     0.03225018    3.54788705   -0.06599342       6
Co    -1.76199583   -1.89792903   -0.09087545       7
Cr    -1.81309240    1.90029531   -0.14859464       8
Cr     0.11044149   -1.89593044    1.62751223       9
Cr     0.12331178    1.91092212    1.80840115      10
Co    -1.74649594   -0.02064277   -1.80701558      11
Co     1.72637771    0.00587802    1.67976520      12
Cr     1.75213219   -0.03910157   -1.77137960      13
Cr    -0.05989184   -1.66411905   -1.69336486      14
Cr    -0.00673920    1.52032084   -1.66034086      15
Co     1.73643211   -1.72276844   -0.10018196      16
Ni     1.80247218    1.77339140   -0.01185577      17
Ni    -1.02315889    0.06874994    1.02917681      18
          18
Lattice="  24.8920   0.0000   0.0000   0.0000  24.8920   0.0000   0.0000   0.0000  24.8920 " ConfE="      -5937.8196" DelE="         -0.0581"
Co    -3.53287269    0.01621462   -0.09385951       1
Co     0.03382192    0.01049626    3.51417724       2
Cr     3.62675112   -0.03232130   -0.07192293       3
Co     0.02549197    0.01141254   -3.63662917       4
Cr     0.06116591   -3.56864437   -0.00536389       5
Co     0.02927774    3.52623796   -0.07525453       6
Co    -1.71719108   -1.73814939   -0.06028997       7
Cr    -1.76199974    1.71711982   -0.08588822       8
Cr     0.04148369   -1.61782235    1.51115627       9
Cr     0.03518237    1.59286686    1.58265158      10
Co    -1.74333213   -0.00987698   -1.82104987      11
Co     1.74624774    0.00749395    1.66318871      12
Cr     1.79950287   -0.04896418   -1.83213252      13
Cr    -0.02898465   -1.65414861   -1.69760416      14
Cr     0.01067991    1.48739120   -1.62991363      15
Co     1.77717956   -1.71415950   -0.12384949      16
Ni     1.84111128    1.76096482   -0.04928420      17
Ni    -1.78880758    0.01048799    1.72127385      18
