          23
Lattice="  24.8920   0.0000   0.0000   0.0000  24.8920   0.0000   0.0000   0.0000  24.8920 " ConfE="      -5936.6806" DelE="          0.0000"
Co    -0.05517338   -2.78330268    2.78247918       1
Cr    -0.00074498    2.49274136   -2.42897092       2
Ni    -1.80039842   -2.80858145    0.95802805       3
Ni    -1.82783971   -1.04021617    2.67679574       4
Ni     1.72734501   -1.00002842    2.76649233       5
Ni     1.73559282   -2.73871576    0.98455821       6
Ni    -1.79590594    0.73695530   -2.55050326       7
Ni    -1.83657287    2.50762628   -0.79817231       8
Ni     1.69947248    0.73297561   -2.52734057       9
Co     1.72109735    2.50158891   -0.77446375      10
Cr    -3.65780978   -1.07942535    0.97814548      11
Cr     3.62728395   -1.03094598    1.04565288      12
Ni     3.55428091    0.72809731   -0.81019521      13
Cr    -3.66384760    0.79070579   -0.88924206      14
Co    -0.02573351   -2.77568562   -0.74141006      15
Ni    -0.05598426    0.70234429    2.62193016      16
Co    -0.05584301    2.50902454    0.90946102      17
Ni    -0.04094552   -1.00312693   -2.51013175      18
Ni     0.00000000    0.00000000    0.00000000      19
Ni    -1.94070661   -1.06741744   -0.79760802      20
Co    -2.03540043    0.78977672    0.95568218      21
Co     1.92685236    0.79522993    1.03977192      22
Cr     1.86254942   -1.06567807   -0.74528686      23
          23
Lattice="  24.8920   0.0000   0.0000   0.0000  24.8920   0.0000   0.0000   0.0000  24.8920 " ConfE="      -5936.6116" DelE="          0.0690"
Co    -0.05716119   -2.78418207    2.78559606       1
Cr     0.00522544    2.51873632   -2.45417457       2
Ni    -1.80316081   -2.80627397    0.95455455       3
Ni    -1.83166268   -1.04286901    2.69431218       4
Ni     1.72568336   -1.00170996    2.78395683       5
Ni     1.72422542   -2.73565728    0.97794445       6
Ni    -1.77534524    0.73682561   -2.53640137       7
Ni    -1.80704245    2.48539747   -0.79019111       8
Ni     1.68498776    0.73652555   -2.52000829       9
Co     1.71155602    2.50162616   -0.78601564      10
Cr    -3.63603950   -1.06254599    0.97185016      11
Cr     3.57949779   -1.00936528    1.02618465      12
Ni     3.55796603    0.73650175   -0.82405763      13
Cr    -3.67453717    0.80645433   -0.89647527      14
Co    -0.03555719   -2.80295700   -0.75713966      15
Ni    -0.05650986    0.70268788    2.66588975      16
Co    -0.04983996    2.49065975    0.91810382      17
Ni    -0.04243306   -1.01071594   -2.50412604      18
Ni    -0.03461062   -0.35766872    0.27539336      19
Ni    -1.96418539   -1.06095794   -0.83033070      20
Co    -2.01352698    0.78752337    0.95382411      21
Co     1.88200706    0.79050713    1.00434100      22
Cr     1.85803852   -1.05120893   -0.77779210      23
          23
Lattice="  24.8920   0.0000   0.0000   0.0000  24.8920   0.0000   0.0000   0.0000  24.8920 " ConfE="      -5937.3094" DelE="         -0.6288"
Co    -0.05733475   -2.82148144    2.81129213       1
Cr     0.00024136    2.54515170   -2.47901840       2
Ni    -1.80529755   -2.82874664    0.97000600       3
Ni    -1.83946281   -1.04370545    2.73754999       4
Ni     1.70907199   -1.00526036    2.79395891       5
Ni     1.73057618   -2.77921666    0.98280413       6
Ni    -1.76624988    0.74705473   -2.55142883       7
Ni    -1.79646818    2.49139802   -0.79516896       8
Ni     1.67416081    0.75090729   -2.53764374       9
Co     1.70739075    2.52330179   -0.79735731      10
Cr    -3.58185614   -1.03000377    0.95022936      11
Cr     3.50745036   -1.00742694    1.00616584      12
Ni     3.51593526    0.72842077   -0.80691241      13
Cr    -3.62619968    0.78212660   -0.87485491      14
Co    -0.03202793   -2.85378279   -0.78296480      15
Ni    -0.05795112    0.75093329    2.73698792      16
Co    -0.05156600    2.52035261    0.91834583      17
Ni    -0.03476965   -1.01343512   -2.54470088      18
Ni    -0.05500064   -1.01658765    0.96197834      19
Ni    -1.80106240   -1.02050425   -0.78046542      20
Co    -1.87378301    0.75719585    0.94479975      21
Co     1.68880895    0.71708717    0.90775732      22
Cr     1.69880717   -0.98259186   -0.72838985      23
