          18
Lattice="  24.8920   0.0000   0.0000   0.0000  24.8920   0.0000   0.0000   0.0000  24.8920 " ConfE="      -5930.3795" DelE="          0.0000"
Co    -3.53757200   -0.02184976   -0.04591482       1
Cr    -0.02945238   -0.02930519    3.48113137       2
Co     3.61662571   -0.00806596   -0.02618651       3
Cr     0.01861885   -0.04211666   -3.54945109       4
Cr     0.03934594   -3.57556601   -0.05215596       5
Cr     0.02352288    3.44730855   -0.08375368       6
Ni    -1.73482441   -1.78306350   -0.01400448       7
Co    -1.75532122    1.78726500   -0.00622912       8
Ni     0.01416083   -1.78024936    1.73708757       9
Cr    -0.07777022    1.60316167    1.68725826      10
Ni    -1.75804120   -0.01055912   -1.79336115      11
Ni     1.83795659   -0.03431136    1.73754645      12
Ni     1.83021425   -0.02362442   -1.79499621      13
Cr     0.04347759   -1.75077076   -1.77656241      14
Co     0.02595822    1.72911237   -1.80788288      15
Co     1.82664242   -1.80444253   -0.04932492      16
Co     1.81978904    1.75889234   -0.01688257      17
Co     0.00000000    0.00000000    0.00000000      18
          18
Lattice="  24.8920   0.0000   0.0000   0.0000  24.8920   0.0000   0.0000   0.0000  24.8920 " ConfE="      -5929.7739" DelE="          0.6056"
Co    -3.47674405   -0.01948695   -0.01700957       1
Cr    -0.05667135   -0.02123811    3.40458256       2
Co     3.60711327   -0.00912499   -0.02469904       3
Cr     0.01407981   -0.04351070   -3.55585463       4
Cr     0.05687252   -3.65565884   -0.07157088       5
Cr     0.02454128    3.52791714   -0.13032624       6
Ni    -1.73642206   -1.89723770   -0.04035791       7
Co    -1.79912720    1.95767832   -0.07630531       8
Ni     0.04968777   -1.92435979    1.74144832       9
Cr     0.05430810    1.89728744    1.73936394      10
Ni    -1.70861192   -0.00721450   -1.72302659      11
Ni     1.76718587   -0.02401827    1.70812059      12
Ni     1.79249308   -0.01785987   -1.75872271      13
Cr     0.06364879   -1.72257207   -1.72530426      14
Co     0.02970459    1.72099364   -1.74838637      15
Co     1.80020189   -1.80885430   -0.04827887      16
Co     1.78733033    1.76695182   -0.00954100      17
Co    -0.67942753    0.09894895    0.73833043      18
          18
Lattice="  24.8920   0.0000   0.0000   0.0000  24.8920   0.0000   0.0000   0.0000  24.8920 " ConfE="      -5930.5819" DelE="         -0.2024"
Co    -3.55157989   -0.02343962   -0.05816667       1
Cr     0.02165532   -0.00744121    3.52598469       2
Co     3.62124859   -0.00538035   -0.02765718       3
Cr     0.02112077   -0.03887589   -3.57117789       4
Cr     0.04460523   -3.61402900   -0.06141498       5
Cr     0.03168236    3.52671913   -0.09585846       6
Ni    -1.69708941   -1.79206328   -0.03727211       7
Co    -1.72739314    1.80566346   -0.02044806       8
Ni     0.04751061   -1.77890391    1.70643064       9
Cr     0.00183202    1.64539096    1.64256235      10
Ni    -1.70317646   -0.00951753   -1.73968726      11
Ni     1.79786152   -0.02768312    1.70330829      12
Ni     1.80802501   -0.01607594   -1.78329774      13
Cr     0.07284201   -1.72870486   -1.76875607      14
Co     0.03626180    1.71740507   -1.76662175      15
Co     1.80976176   -1.79551381   -0.07099290      16
Co     1.79624547    1.75572156   -0.02028813      17
Co    -1.68714303    0.01205143    1.71241123      18
