          18
Lattice="  24.8920   0.0000   0.0000   0.0000  24.8920   0.0000   0.0000   0.0000  24.8920 " ConfE="      -5949.8938" DelE="          0.0000"
Ni     0.00024712   -0.01104856    3.51875796       1
Cr     0.02506102   -3.52599384    0.03611068       2
Ni    -0.00004427   -0.02532359   -3.56803483       3
Cr     0.02724845    3.59294503   -0.01500906       4
Cr     3.51936997    0.01701175   -0.03506532       5
Ni    -3.52828095    0.01161294   -0.00926887       6
Ni     1.73056895   -0.02809365    1.77439951       7
Cr    -1.78493929    0.02203176    1.77493956       8
Ni     1.74896298   -1.75514171    0.00786908       9
Ni    -1.70331419   -1.77931667    0.04276158      10
Ni     0.00571886    1.82448113    1.74887562      11
Co     0.06763543   -1.79744079   -1.79465286      12
Ni     0.00044372    1.75957962   -1.80089632      13
Co     1.77197106    1.79576436   -0.02555165      14
Ni    -1.76509599    1.78138076   -0.02275332      15
Cr     1.81563207    0.03043416   -1.77722862      16
Ni    -1.76536284   -0.00597928   -1.77992873      17
Ni     0.00000000    0.00000000    0.00000000      18
          18
Lattice="  24.8920   0.0000   0.0000   0.0000  24.8920   0.0000   0.0000   0.0000  24.8920 " ConfE="      -5949.2458" DelE="          0.6480"
Ni    -0.00095709   -0.03289979    3.46027864       1
Cr     0.01664710   -3.44270096    0.04987385       2
Ni     0.00396636   -0.03633971   -3.57418283       3
Cr     0.02128950    3.59060762    0.00506493       4
Cr     3.58267210    0.03189120   -0.04780916       5
Ni    -3.57262607    0.01258344   -0.04400452       6
Ni     1.88520559    0.01461311    1.80670567       7
Cr    -1.98905483    0.03285929    1.83185910       8
Ni     1.84020939   -1.74324653   -0.01364830       9
Ni    -1.87235839   -1.83827438   -0.03501918      10
Ni    -0.00010452    1.76917325    1.73928286      11
Co     0.06204773   -1.76315765   -1.73743095      12
Ni     0.01157115    1.70208551   -1.75859418      13
Co     1.75784704    1.74435291   -0.01371874      14
Ni    -1.72325095    1.68512642   -0.00054587      15
Cr     1.80575496    0.02983404   -1.73395489      16
Ni    -1.74799526   -0.02852408   -1.76445712      17
Ni    -0.09675768   -0.56822794    0.70996757      18
          18
Lattice="  24.8920   0.0000   0.0000   0.0000  24.8920   0.0000   0.0000   0.0000  24.8920 " ConfE="      -5950.1252" DelE="         -0.2314"
Ni    -0.00715474    0.02202012    3.56377600       1
Cr     0.03301966   -3.57208675   -0.01556465       2
Ni     0.00458946   -0.02951022   -3.58673993       3
Cr     0.02301447    3.59985385   -0.01614381       4
Cr     3.55967962    0.02876588   -0.04413416       5
Ni    -3.54631635    0.01558020   -0.02325484       6
Ni     1.73854089    0.02076138    1.73935907       7
Cr    -1.80680799    0.03597223    1.75905172       8
Ni     1.75869136   -1.71655677   -0.01497506       9
Ni    -1.71516338   -1.74391543   -0.00359190      10
Ni    -0.00856289    1.77796679    1.72345283      11
Co     0.07831670   -1.76872101   -1.75592770      12
Ni     0.01161459    1.72552905   -1.78174728      13
Co     1.75239031    1.76427854   -0.04481461      14
Ni    -1.73312270    1.73715439   -0.02573616      15
Cr     1.81016413    0.04119889   -1.76289656      16
Ni    -1.72752194   -0.01129152   -1.76468933      17
Ni     0.00064202   -1.73615769    1.74452647      18
