          18
Lattice="  24.8920   0.0000   0.0000   0.0000  24.8920   0.0000   0.0000   0.0000  24.8920 " ConfE="      -5930.2382" DelE="          0.0000"
Ni    -0.00255452    0.02821219    3.50920439       1
Co     3.56644976   -0.00255596   -0.00750192       2
Co     0.02524370   -3.47723638    0.04518413       3
Ni     0.00214569    3.62743592   -0.01208132       4
Cr     0.05865721    0.05316307   -3.55164829       5
Co    -3.55811086    0.07805167   -0.00162984       6
Ni     1.78903846   -0.00985884    1.71123062       7
Ni    -0.01373156   -1.72916678   -1.73204078       8
Ni     1.78363461    1.82599109   -0.00398179       9
Cr     0.05256840   -1.79700825    1.65562673      10
Co     1.72657909    0.03426452   -1.73103209      11
Ni    -1.75758694    0.04542797    1.76451591      12
Cr     0.04692929    1.84994552    1.78655589      13
Co    -1.80571783   -1.72504318    0.00085098      14
Co    -1.73276769    1.81571271    0.01766939      15
Cr    -0.01931041    1.79238724   -1.75186208      16
Cr    -1.80500825    0.06045527   -1.77095709      17
Cr     0.00000000    0.00000000    0.00000000      18
          18
Lattice="  24.8920   0.0000   0.0000   0.0000  24.8920   0.0000   0.0000   0.0000  24.8920 " ConfE="      -5928.9272" DelE="          1.3110"
Ni    -0.00200686    0.04248968    3.60176502       1
Co     3.48961908   -0.01241942    0.01537456       2
Co     0.02506290   -3.43161726    0.04199632       3
Ni    -0.02592060    3.55349338   -0.03031817       4
Cr     0.01357351    0.05323191   -3.70025212       5
Co    -3.47608306    0.10877673    0.00535241       6
Ni     1.80382760    0.08073635    1.89073859       7
Ni    -0.09270597   -1.70820940   -1.90512149       8
Ni     1.70191215    1.73869488   -0.00183250       9
Cr    -0.01420143   -1.76011756    1.83280176      10
Co     1.74632344    0.07441904   -1.86302985      11
Ni    -1.77520455    0.00594718    1.92219625      12
Cr     0.02506354    1.84735726    1.87778950      13
Co    -1.68609181   -1.62710529    0.00792159      14
Co    -0.96918722    1.01318516   -0.01834305      15
Cr     0.02278174    1.77054424   -1.92095142      16
Cr    -1.80457610    0.03348845   -1.89545696      17
Cr     0.93150408   -0.92009012   -0.01149414      18
          18
Lattice="  24.8920   0.0000   0.0000   0.0000  24.8920   0.0000   0.0000   0.0000  24.8920 " ConfE="      -5930.3736" DelE="         -0.1354"
Ni    -0.02448622    0.06380369    3.50825287       1
Co     3.58270523    0.00423367    0.00744270       2
Co    -0.00934301   -3.53945771    0.01964286       3
Ni    -0.01766815    3.59902728   -0.02071540       4
Cr     0.02007209    0.07071717   -3.52980443       5
Co    -3.54867983    0.10264497   -0.01074568       6
Ni     1.77735095    0.04173047    1.74591485       7
Ni    -0.05015852   -1.71889276   -1.74788799       8
Ni     1.80571034    1.81469116   -0.00669401       9
Cr    -0.03240496   -1.74851394    1.69585372      10
Co     1.74228876    0.04530555   -1.75500911      11
Ni    -1.78519073    0.11617914    1.73459642      12
Cr    -0.01216646    1.87591763    1.74081547      13
Co    -1.77549598   -1.73981818    0.01737633      14
Co    -0.06239816    0.13577939   -0.01223009      15
Cr    -0.08026768    1.77466846   -1.67621181      16
Cr    -1.81966269    0.09418742   -1.73905893      17
Cr     1.73224173   -1.74744097    0.01747154      18
