          18
Lattice="  24.8920   0.0000   0.0000   0.0000  24.8920   0.0000   0.0000   0.0000  24.8920 " ConfE="      -5938.3950" DelE="          0.0000"
Ni     3.50369917    0.00450207    0.02220412       1
Co    -0.06759011    0.00789777    3.56231808       2
Ni    -0.00288453    3.57620189    0.02382602       3
Co     0.03282727   -3.56068590    0.00784225       4
Co     0.03068264   -0.02110771   -3.55164750       5
Cr    -3.53899514    0.13633940   -0.01730709       6
Ni     1.71280360   -0.02326667    1.79437279       7
Ni    -1.76657066   -0.00035757    1.78867529       8
Ni    -1.74786729   -1.73565710    0.01498975       9
Ni     1.73974615    1.79967188    0.01297285      10
Co     1.73579978   -1.82166537    0.00128749      11
Ni    -0.00313314    1.81033263    1.79428292      12
Ni    -1.75034399    0.02245721   -1.77077243      13
Co     0.02861809    1.78749944   -1.79452408      14
Co     1.80903887   -0.04605174   -1.81959908      15
Co    -1.81041835    1.80775556    0.01343105      16
Co     0.03058281   -1.83008952   -1.84297852      17
Ni     0.00000000    0.00000000    0.00000000      18
          18
Lattice="  24.8920   0.0000   0.0000   0.0000  24.8920   0.0000   0.0000   0.0000  24.8920 " ConfE="      -5937.5958" DelE="          0.7991"
Ni     3.54811344    0.01442349    0.01222233       1
Co    -0.07668510    0.00016105    3.52885597       2
Ni    -0.00678742    3.56757921    0.03569611       3
Co     0.03636394   -3.53055465    0.00806849       4
Co     0.02156020   -0.02708140   -3.55506853       5
Cr    -3.60365529    0.18203762   -0.06942396       6
Ni     1.89755018    0.07096565    1.87584257       7
Ni    -1.92866495    0.04503312    1.80646568       8
Ni    -1.91411932   -1.74722702   -0.02575195       9
Ni     1.73085071    1.76212838    0.01828840      10
Co     1.90205807   -1.86321243   -0.11049050      11
Ni    -0.01366243    1.72992398    1.75018131      12
Ni    -1.74149051    0.01761820   -1.73714764      13
Co     0.02789228    1.74232546   -1.75413690      14
Co     1.80228031   -0.04805203   -1.79663588      15
Co    -1.81459543    1.77976273    0.01432284      16
Co     0.02114443   -1.79340197   -1.78067104      17
Ni     0.03865155   -0.86306336    0.88781485      18
          18
Lattice="  24.8920   0.0000   0.0000   0.0000  24.8920   0.0000   0.0000   0.0000  24.8920 " ConfE="      -5938.4078" DelE="         -0.0129"
Ni     3.51984304    0.01239060    0.01380968       1
Co    -0.05135462    0.04191125    3.58740857       2
Ni    -0.00325716    3.59057971    0.02135197       3
Co     0.02529995   -3.60215908   -0.02872095       4
Co     0.02026496   -0.02153293   -3.56952491       5
Cr    -3.56226520    0.15413082   -0.03099556       6
Ni     1.72238663    0.01536004    1.76032779       7
Ni    -1.76656592    0.03706130    1.76148424       8
Ni    -1.73728218   -1.70323644   -0.01782488       9
Ni     1.70847275    1.77337528   -0.00166815      10
Co     1.73864636   -1.79233808   -0.04522304      11
Ni    -0.00443596    1.78660750    1.76576500      12
Ni    -1.71251050    0.02735845   -1.73656388      13
Co     0.03200133    1.76674723   -1.78147453      14
Co     1.78968558   -0.04037262   -1.80996391      15
Co    -1.80174015    1.80251530    0.00577101      16
Co     0.03447410   -1.81489071   -1.81657609      17
Ni    -0.00923792   -1.73624954    1.74846474      18
