          18
Lattice="  24.8920   0.0000   0.0000   0.0000  24.8920   0.0000   0.0000   0.0000  24.8920 " ConfE="      -5949.9794" DelE="          0.0000"
Co    -0.06082187   -0.01017337   -3.41607740       1
Ni     3.40746102   -0.00812431    0.10359237       2
Ni    -0.12235210   -0.05707357    3.68444142       3
Co    -3.68456432   -0.04612023    0.11032940       4
Ni    -0.06275594   -3.58036599    0.08858031       5
Co    -0.08141644    3.51375868    0.10512288       6
Co    -0.04746441   -1.71588624   -1.66997351       7
Co    -0.05026742    1.72391000   -1.65001573       8
Co     1.67956317   -1.75375860    0.08574697       9
Co     1.69384506    1.75435354    0.09649247      10
Cr    -1.87209866   -0.03493684   -1.66004548      11
Ni     1.68819045   -0.03626506    1.90544498      12
Co    -1.87705456   -0.02744193    1.83933187      13
Ni    -1.84132646   -1.80400013    0.11097480      14
Cr    -1.82262305    1.70525895    0.09474644      15
Ni    -0.09442469   -1.79552455    1.87560670      16
Ni    -0.06787964    1.72772086    1.88999571      17
Cr     0.00000000    0.00000000    0.00000000      18
          18
Lattice="  24.8920   0.0000   0.0000   0.0000  24.8920   0.0000   0.0000   0.0000  24.8920 " ConfE="      -5949.6895" DelE="          0.2900"
Co    -0.06266228   -0.01368666   -3.33936340       1
Ni     3.37479299   -0.01570675    0.10323553       2
Ni    -0.12028962   -0.05698580    3.69352378       3
Co    -3.68978800   -0.04832706    0.10245231       4
Ni    -0.05872016   -3.60931944    0.08942615       5
Co    -0.08258766    3.56328280    0.11179385       6
Co    -0.06755423   -1.85349255   -1.71827403       7
Co    -0.08022266    1.83473980   -1.66703720       8
Co     1.71576358   -1.85429421    0.10467821       9
Co     1.70333459    1.82460127    0.11509571      10
Cr    -1.84014232   -0.01975531   -1.64699083      11
Ni     1.67266778   -0.03514542    1.87789195      12
Co    -1.85684470   -0.02031191    1.81009887      13
Ni    -1.77630730   -1.76577793    0.07992499      14
Cr    -1.77252676    1.66543660    0.09066950      15
Ni    -0.07576865   -1.77618527    1.84397182      16
Ni    -0.06256169    1.70875856    1.84940618      17
Cr     0.53591198   -0.03735983   -0.51805192      18
          18
Lattice="  24.8920   0.0000   0.0000   0.0000  24.8920   0.0000   0.0000   0.0000  24.8920 " ConfE="      -5950.6354" DelE="         -0.6560"
Co    -0.09369567   -0.01137274   -3.48240674       1
Ni     3.44615785   -0.01493048    0.12051613       2
Ni    -0.12816492   -0.05735908    3.69481216       3
Co    -3.70245915   -0.05538970    0.10029625       4
Ni    -0.06867870   -3.60026148    0.10068870       5
Co    -0.07916993    3.54179660    0.10937859       6
Co    -0.07566563   -1.71851590   -1.64454052       7
Co    -0.08177998    1.71302805   -1.60255137       8
Co     1.68247266   -1.75306093    0.08663740       9
Co     1.68298506    1.74089783    0.10400924      10
Cr    -1.72786050   -0.02053975   -1.58350740      11
Ni     1.65993084   -0.03890934    1.85973849      12
Co    -1.89277078   -0.02180767    1.84018773      13
Ni    -1.83568058   -1.79055389    0.12622919      14
Cr    -1.81455984    1.67612321    0.11457898      15
Ni    -0.10106939   -1.78938134    1.87370274      16
Ni    -0.07918280    1.71008264    1.86527421      17
Cr     1.58580087   -0.05784101   -1.65918269      18
