          18
Lattice="  24.8920   0.0000   0.0000   0.0000  24.8920   0.0000   0.0000   0.0000  24.8920 " ConfE="      -5923.0734" DelE="          0.0000"
Ni     0.01964046    0.03480887    3.53400514       1
Ni     0.04939419   -3.49327310    0.01465545       2
Cr    -3.45226859    0.03223906    0.05606934       3
Cr    -0.00153737    3.55178528   -0.02248418       4
Cr     0.01755641    0.04360821   -3.61343496       5
Cr     3.59800153    0.03977793   -0.11158077       6
Ni    -0.01313689    1.74412734    1.75685933       7
Ni     1.77900228    0.02228932   -1.80723351       8
Co    -1.78731493    1.72428510    0.00482452       9
Ni    -1.74192526   -0.02094160   -1.86004548      10
Cr     0.04415063   -1.70177623    1.77502768      11
Ni     0.01576390   -1.77371305   -1.78409473      12
Cr    -1.74230172   -1.71880327    0.09437708      13
Co     1.88333200    0.03812425    1.75315758      14
Cr     1.77060408    1.78061867    0.01713033      15
Co     0.01571820    1.79197039   -1.80417077      16
Co     1.88432056   -1.73610591   -0.00556243      17
Ni     0.00000000    0.00000000    0.00000000      18
          18
Lattice="  24.8920   0.0000   0.0000   0.0000  24.8920   0.0000   0.0000   0.0000  24.8920 " ConfE="      -5919.5122" DelE="          3.5612"
Ni    -0.03668984    0.06067783    3.58406118       1
Ni     0.03267046   -3.54814485   -0.01360499       2
Cr    -3.48891723    0.03330483    0.01835757       3
Cr    -0.07164450    3.56923472   -0.05630148       4
Cr    -0.00038274    0.06089921   -3.60913523       5
Cr     3.63681592   -0.47283571   -0.72649807       6
Ni     0.00600892    1.92311030    1.81746618       7
Ni     1.63282169    0.04997796   -1.78403131       8
Co    -1.25788678    0.37506460    0.54934775       9
Ni    -1.75048666   -0.03507833   -1.86713793      10
Cr    -0.16351495   -1.81269018    1.72714087      11
Ni    -0.00750381   -1.77248454   -1.75513351      12
Cr    -1.74868025   -1.78170217    0.02430641      13
Co     3.43585997    0.47068829    1.21952412      14
Cr     1.76676808    1.77755154    0.01884106      15
Co    -0.09861183    1.78210915   -1.60401611      16
Co     1.85505407   -1.78490565   -0.05595735      17
Ni     1.25181841   -0.06886190    1.55140387      18
          18
Lattice="  24.8920   0.0000   0.0000   0.0000  24.8920   0.0000   0.0000   0.0000  24.8920 " ConfE="      -5919.6440" DelE="          3.4294"
Ni    -0.02356867    0.05620368    3.58589845       1
Ni     0.02563282   -3.52850751   -0.00208241       2
Cr    -3.50293614    0.03015050    0.01071369       3
Cr    -0.06959775    3.56063965   -0.04076898       4
Cr    -0.01130974    0.06273736   -3.62567002       5
Cr     3.56428457   -0.59424394   -0.82517075       6
Ni     0.02405957    1.84943870    1.82311373       7
Ni     1.56638086    0.09253728   -1.77202372       8
Co    -1.30619189    0.41486847    0.50973147       9
Ni    -1.77173954   -0.04397477   -1.88678866      10
Cr    -0.09516186   -1.65717359    1.68564886      11
Ni    -0.02373437   -1.77059183   -1.76689923      12
Cr    -1.75124675   -1.77278893    0.03588661      13
Co     3.62921139    0.73715555    0.87036315      14
Cr     1.68330744    1.78356180    0.02402895      15
Co    -0.15745620    1.80616730   -1.62718028      16
Co     1.78727359   -1.75770339   -0.04506477      17
Ni     1.61031376   -0.02957939    1.75422270      18
