          18
Lattice="  24.8920   0.0000   0.0000   0.0000  24.8920   0.0000   0.0000   0.0000  24.8920 " ConfE="      -5943.5301" DelE="          0.0000"
Co    -0.01221873   -3.49578366   -0.10231269       1
Ni     3.49308391    0.04171590   -0.05945081       2
Ni    -0.02388102    3.62674700   -0.09647500       3
Ni    -3.58638518    0.05326461   -0.07777139       4
Cr     0.00647029   -0.01506049    3.38259403       5
Cr    -0.00139004    0.00149277   -3.63379004       6
Co    -0.02528342   -1.73928944    1.58440876       7
Co    -0.01186156   -1.68228698   -1.79779187       8
Co     1.67509430    0.03693553    1.66755230       9
Ni     1.73731358    0.03097563   -1.81477312      10
Cr    -1.81368338   -1.80019289   -0.11534180      11
Ni     1.74605098    1.85169874   -0.07218977      12
Cr    -1.78341018    1.87093623   -0.06182105      13
Cr    -1.76058671    0.03557955    1.69188292      14
Cr    -1.80135188    0.03706624   -1.84173651      15
Co    -0.04505735    1.86126864    1.69215065      16
Cr    -0.04482900    1.77540538   -1.85968605      17
Cr     0.00000000    0.00000000    0.00000000      18
          18
Lattice="  24.8920   0.0000   0.0000   0.0000  24.8920   0.0000   0.0000   0.0000  24.8920 " ConfE="      -5942.8979" DelE="          0.6322"
Co     0.00107445   -3.46703968   -0.09684813       1
Ni     3.45920259    0.03606569   -0.07898618       2
Ni    -0.00771446    3.63379278   -0.10125512       3
Ni    -3.57877697    0.03826406   -0.07541003       4
Cr    -0.06077232    0.04886919    3.49999577       5
Cr    -0.03546577    0.03638256   -3.68674967       6
Co    -0.08154417   -1.77886290    1.75418109       7
Co    -0.01723336   -1.70382225   -1.90579450       8
Co     1.68974290    0.10401746    1.78655024       9
Ni     1.76755129    0.05947632   -1.93542960      10
Cr    -1.75956176   -1.85958301   -0.08829200      11
Ni     1.70752574    1.77670057   -0.08556079      12
Cr    -1.75410787    1.89463077   -0.06927667      13
Cr    -1.58722430    0.03032177    1.51482662      14
Cr    -1.61411911    0.00242689   -1.59439825      15
Co    -0.05017169    1.80021881    1.64730975      16
Cr    -0.00935578    1.71442284   -1.81308145      17
Cr     0.96779259   -0.96270927   -0.00653828      18
          18
Lattice="  24.8920   0.0000   0.0000   0.0000  24.8920   0.0000   0.0000   0.0000  24.8920 " ConfE="      -5943.5250" DelE="          0.0052"
Co    -0.03795363   -3.55609694   -0.09273017       1
Ni     3.50809786    0.05950456   -0.06517823       2
Ni    -0.02002345    3.63612908   -0.09855034       3
Ni    -3.58668648    0.04948028   -0.08134431       4
Cr    -0.02316105    0.03337085    3.47337345       5
Cr    -0.00268037    0.01156618   -3.66470313       6
Co    -0.06942711   -1.71080302    1.60416883       7
Co    -0.03393686   -1.66347498   -1.79910695       8
Co     1.64979156    0.03991366    1.65915028       9
Ni     1.70980682    0.05899292   -1.82919416      10
Cr    -1.68893484   -1.71906983   -0.11028689      11
Ni     1.71033319    1.81088163   -0.07966693      12
Cr    -1.70648558    1.80402176   -0.07115505      13
Cr    -1.69007838    0.05392988    1.63139520      14
Cr    -1.75995539    0.05487938   -1.80233849      15
Co    -0.05843271    1.81841092    1.66588011      16
Cr    -0.05061858    1.78617606   -1.87368929      17
Cr     1.60851014   -1.65950559   -0.01708464      18
