          18
Lattice="  24.8920   0.0000   0.0000   0.0000  24.8920   0.0000   0.0000   0.0000  24.8920 " ConfE="      -5945.0859" DelE="          0.0000"
Ni    -0.03958086    3.43838811   -0.04159446       1
Ni    -0.07166732   -0.04068217    3.53839649       2
Ni    -0.05762577   -3.62413898   -0.00032808       3
Co     3.45625781   -0.05195739   -0.00870968       4
Co    -0.06518474   -0.06864552   -3.60146262       5
Co    -3.58165462   -0.13849200   -0.04422412       6
Ni    -0.01638502    1.72637989   -1.80870229       7
Ni     1.71294956   -0.04498477   -1.77752492       8
Ni    -1.79065367   -0.05356693   -1.80783681       9
Co     0.01621691    1.74033357    1.72159926      10
Cr     1.68297552   -0.08425874    1.73075712      11
Co    -1.86080479    1.70393482   -0.03496179      12
Co    -0.04139163   -1.85751548   -1.78681409      13
Cr    -1.74980190   -1.81277192   -0.00447696      14
Co    -1.81062899   -0.08091764    1.72214173      15
Co     1.72298306   -1.89215378   -0.02073954      16
Co    -0.02983112   -1.83766724    1.76845764      17
Ni     0.00000000    0.00000000    0.00000000      18
          18
Lattice="  24.8920   0.0000   0.0000   0.0000  24.8920   0.0000   0.0000   0.0000  24.8920 " ConfE="      -5944.4607" DelE="          0.6252"
Ni    -0.02000967    3.37054830   -0.04398707       1
Ni    -0.08371941   -0.04802478    3.58345065       2
Ni    -0.05076793   -3.62850954    0.00440963       3
Co     3.42336771   -0.05698354   -0.01059794       4
Co    -0.07554406   -0.08957565   -3.64779136       5
Co    -3.58564066   -0.14267849   -0.05292143       6
Ni    -0.05572648    1.74170856   -1.95039012       7
Ni     1.73423420   -0.11025289   -1.93192243       8
Ni    -1.78187088   -0.05830934   -1.82605418       9
Co    -0.06467022    1.80175527    1.88695072      10
Cr     1.68481985   -0.17796809    1.88061467      11
Co    -1.80411583    1.66084599   -0.04183576      12
Co    -0.04748456   -1.84102855   -1.76625504      13
Cr    -1.62830214   -1.71125840    0.01281603      14
Co    -1.74476068   -0.08634783    1.66628118      15
Co     1.69436659   -1.84532104   -0.01837271      16
Co    -0.02603207   -1.82699391    1.76604492      17
Ni     0.73930826    0.72460041    0.01083727      18
          18
Lattice="  24.8920   0.0000   0.0000   0.0000  24.8920   0.0000   0.0000   0.0000  24.8920 " ConfE="      -5945.0718" DelE="          0.0141"
Ni    -0.07482373    3.46291175   -0.03191200       1
Ni    -0.08661783   -0.04936431    3.55553223       2
Ni    -0.05547982   -3.64396198    0.00207937       3
Co     3.50805929   -0.08508553   -0.01370725       4
Co    -0.07813654   -0.07632497   -3.61826221       5
Co    -3.61023868   -0.13905787   -0.04805081       6
Ni    -0.05496470    1.70289858   -1.80258113       7
Ni     1.66100607   -0.08799622   -1.76320424       8
Ni    -1.77296874   -0.06078501   -1.77867129       9
Co    -0.05524653    1.65917010    1.70118267      10
Cr     1.58947079   -0.14252212    1.70370239      11
Co    -1.83225304    1.67829196   -0.03817700      12
Co    -0.06106852   -1.85672282   -1.75944283      13
Cr    -1.67374824   -1.74742894    0.00479305      14
Co    -1.78116044   -0.10630493    1.64912208      15
Co     1.69581168   -1.84964598   -0.01065945      16
Co    -0.03997910   -1.81887662    1.73652981      17
Ni     1.68313521    1.65253756   -0.01038814      18
