          18
Lattice="  24.8920   0.0000   0.0000   0.0000  24.8920   0.0000   0.0000   0.0000  24.8920 " ConfE="      -5942.5079" DelE="          0.0000"
Ni    -0.03316838   -3.48178255    0.02668081       1
Ni     3.40452795   -0.01349789    0.02905254       2
Cr    -0.04515381    3.56936927    0.03698688       3
Ni    -3.61240657    0.03442268    0.05025240       4
Co    -0.06271110    0.00780121    3.61019873       5
Co    -0.09069488    0.06101957   -3.55943778       6
Cr     0.05591442   -1.71601921    1.78010676       7
Co    -0.10117209   -1.72845839   -1.73698775       8
Co     1.69253252   -0.00791030    1.83416201       9
Co     1.64722031    0.08432347   -1.83662615      10
Cr    -1.82315336   -1.73997486    0.00751545      11
Ni     1.72118961    1.84158554    0.03223703      12
Co    -1.81707701    1.79598321    0.06269416      13
Cr    -1.77239211    0.00765752    1.83339021      14
Cr    -1.76699798    0.00587389   -1.78675256      15
Cr    -0.01733996    1.73650938    1.82659019      16
Co    -0.11629141    1.81703202   -1.76191297      17
Ni     0.00000000    0.00000000    0.00000000      18
          18
Lattice="  24.8920   0.0000   0.0000   0.0000  24.8920   0.0000   0.0000   0.0000  24.8920 " ConfE="      -5941.8100" DelE="          0.6979"
Ni    -0.03366759   -3.46536884    0.02950415       1
Ni     3.38994256   -0.01015489    0.04064304       2
Cr    -0.03852970    3.57960039    0.04168312       3
Ni    -3.62624922    0.03716448    0.05172199       4
Co    -0.09046803    0.02805271    3.67102558       5
Co    -0.09438487    0.07636346   -3.61417140       6
Cr    -0.08699130   -1.72585208    1.99822326       7
Co    -0.17433076   -1.73436969   -1.88814812       8
Co     1.70463523    0.11413254    2.00644531       9
Co     1.63259876    0.12150623   -1.90861463      10
Cr    -1.69560253   -1.64288041    0.02487188      11
Ni     1.68580743    1.78422250    0.03061115      12
Co    -1.79370717    1.76249328    0.07077585      13
Cr    -1.73566213    0.04466447    1.77283096      14
Cr    -1.70971212    0.02455883   -1.72164960      15
Cr    -0.01320140    1.68014056    1.76141854      16
Co    -0.12519398    1.76852631   -1.72264689      17
Ni     1.00236328   -1.06977706    0.08173045      18
          18
Lattice="  24.8920   0.0000   0.0000   0.0000  24.8920   0.0000   0.0000   0.0000  24.8920 " ConfE="      -5942.2406" DelE="          0.2673"
Ni    -0.06308775   -3.50918432    0.03018634       1
Ni     3.48006520    0.03389096    0.03137088       2
Cr    -0.04293569    3.57035761    0.04369001       3
Ni    -3.65341866    0.04314820    0.04496909       4
Co    -0.07097945    0.01335359    3.64350515       5
Co    -0.08894416    0.06855347   -3.58043646       6
Cr    -0.04962837   -1.60096476    1.75475651       7
Co    -0.13581829   -1.65405934   -1.69088863       8
Co     1.67185163    0.03425704    1.83146151       9
Co     1.62921204    0.09365414   -1.80965632      10
Cr    -1.76562592   -1.64965498    0.00010374      11
Ni     1.69383322    1.79044752    0.02535710      12
Co    -1.80609101    1.75769268    0.06651805      13
Cr    -1.81047634    0.05280708    1.80943722      14
Cr    -1.76122715    0.04127844   -1.76042814      15
Cr    -0.02597663    1.64318812    1.74600062      16
Co    -0.12880804    1.77277714   -1.72050077      17
Ni     1.67432618   -1.68439672    0.02230359      18
