          18
Lattice="  24.8920   0.0000   0.0000   0.0000  24.8920   0.0000   0.0000   0.0000  24.8920 " ConfE="      -5949.8312" DelE="          0.0000"
Ni     3.43170400   -0.01518218   -0.01880640       1
Co    -0.03633366    0.01689052   -3.56503256       2
Co    -0.03603854    3.57679828    0.02450398       3
Co    -0.02514168   -3.51694707   -0.00500068       4
Cr    -0.00006626   -0.03513054    3.58374566       5
Cr    -3.55346076   -0.03209043    0.04521340       6
Ni    -0.00946994    1.74192395   -1.76553850       7
Co    -0.02527091   -1.70743168   -1.76414617       8
Cr     1.70768292    1.78654237   -0.02094862       9
Cr     1.63906740   -1.76020066   -0.06688721      10
Ni     1.73582875   -0.02589520    1.80208713      11
Ni    -0.06803647   -1.77684281    1.79292522      12
Cr    -1.82968303   -0.02623048   -1.76462059      13
Cr    -1.77945555    1.74472912    0.05451014      14
Co    -1.82544308   -1.71999201   -0.02350966      15
Co    -0.00884390    1.77126088    1.80259243      16
Co    -1.80304399    0.01271366    1.79993362      17
Co     0.00000000    0.00000000    0.00000000      18
          18
Lattice="  24.8920   0.0000   0.0000   0.0000  24.8920   0.0000   0.0000   0.0000  24.8920 " ConfE="      -5949.2676" DelE="          0.5635"
Ni     3.41926764   -0.00838162   -0.02162624       1
Co    -0.02136806    0.00750065   -3.49354889       2
Co    -0.04086367    3.63524346    0.03560594       3
Co    -0.03646152   -3.56278476    0.00269288       4
Cr     0.02269752   -0.05508157    3.59878030       5
Cr    -3.55913217   -0.02888256    0.02703052       6
Ni    -0.05404274    1.86877292   -1.80167210       7
Co    -0.12561925   -1.89009222   -1.81571742       8
Cr     1.66741801    1.89959393    0.01441142       9
Cr     1.69948359   -1.94212328    0.04370738      10
Ni     1.69569269   -0.02262676    1.73326448      11
Ni    -0.06782320   -1.76208295    1.75571325      12
Cr    -1.70495606   -0.05632537   -1.69126045      13
Cr    -1.62917303    1.64787585    0.07274208      14
Co    -1.80225595   -1.71302186   -0.02557364      15
Co    -0.00434346    1.75738408    1.77419290      16
Co    -1.77232048    0.00905639    1.76482997      17
Co     0.90884827   -0.06185035   -0.84416126      18
          18
Lattice="  24.8920   0.0000   0.0000   0.0000  24.8920   0.0000   0.0000   0.0000  24.8920 " ConfE="      -5949.7050" DelE="          0.1261"
Ni     3.50184982   -0.01980019    0.01453221       1
Co    -0.04960483    0.01604789   -3.58715109       2
Co    -0.04045874    3.59364633    0.02780933       3
Co    -0.02674894   -3.52938348   -0.00258156       4
Cr     0.00814505   -0.05262424    3.61640958       5
Cr    -3.58674783   -0.03068977    0.04291972       6
Ni    -0.06010024    1.74759236   -1.75706520       7
Co    -0.06452727   -1.70689659   -1.73666618       8
Cr     1.62272972    1.71699507   -0.00729684       9
Cr     1.61450978   -1.70907513   -0.06482420      10
Ni     1.71121152   -0.02978096    1.75292126      11
Ni    -0.06349894   -1.74730205    1.76041968      12
Cr    -1.78090876   -0.05270719   -1.72634874      13
Cr    -1.69314299    1.64767626    0.08089454      14
Co    -1.79727780   -1.68036528   -0.02574586      15
Co    -0.01171999    1.74170872    1.76944885      16
Co    -1.78774712    0.01430931    1.77655016      17
Co     1.68706791    0.01162570   -1.69005151      18
