          18
Lattice="  24.8920   0.0000   0.0000   0.0000  24.8920   0.0000   0.0000   0.0000  24.8920 " ConfE="      -5936.8074" DelE="          0.0000"
Cr    -0.05079414   -3.40236833   -0.07574008       1
Ni     3.43867119    0.02969166   -0.01705953       2
Co    -0.08566560    3.63450258   -0.03365958       3
Co    -3.69338975    0.06867906   -0.00681337       4
Cr    -0.09081907   -0.07226778   -3.55482369       5
Cr    -0.10068816    0.04006898    3.48201880       6
Co    -0.03265088   -1.72885052   -1.77902951       7
Co    -0.08260950   -1.69019457    1.73111135       8
Ni     1.69568668    0.04011713   -1.79151401       9
Cr     1.64448574    0.02012637    1.68804442      10
Ni    -1.88869824   -1.70086360   -0.04407504      11
Co     1.68084743    1.88479513   -0.03442097      12
Ni    -1.88663113    1.81015955   -0.04586356      13
Ni    -1.86286550    0.04934742   -1.79202771      14
Co    -1.86124459    0.04305138    1.74694004      15
Co    -0.08481938    1.82049943   -1.82463722      16
Ni    -0.09788822    1.83115461    1.71952241      17
Co     0.00000000    0.00000000    0.00000000      18
          18
Lattice="  24.8920   0.0000   0.0000   0.0000  24.8920   0.0000   0.0000   0.0000  24.8920 " ConfE="      -5936.3851" DelE="          0.4223"
Cr     0.00565434   -3.34254539   -0.06368997       1
Ni     3.42004135    0.00556160   -0.03049263       2
Co    -0.07368472    3.60867647   -0.03420136       3
Co    -3.68442174    0.05815694   -0.00610677       4
Cr    -0.10074511   -0.04894320   -3.62999287       5
Cr    -0.11494955    0.04766279    3.54602013       6
Co    -0.08090732   -1.70082651   -1.97688286       7
Co    -0.16324122   -1.76426201    1.93419969       8
Ni     1.72921165    0.06775081   -1.92007619       9
Cr     1.69479480    0.02846860    1.80395855      10
Ni    -1.82748615   -1.68375513   -0.04341972      11
Co     1.64753429    1.78987790   -0.04558249      12
Ni    -1.86290246    1.77077667   -0.04953513      13
Ni    -1.84115576    0.05032555   -1.80162829      14
Co    -1.84553407    0.01735311    1.75184278      15
Co    -0.07690714    1.79560694   -1.84000988      16
Ni    -0.09194563    1.74410802    1.69419461      17
Co     0.58562153   -0.66825024    0.02793637      18
          18
Lattice="  24.8920   0.0000   0.0000   0.0000  24.8920   0.0000   0.0000   0.0000  24.8920 " ConfE="      -5937.0747" DelE="         -0.2673"
Cr    -0.07405182   -3.46507959   -0.05841315       1
Ni     3.48441628    0.06923481   -0.01900087       2
Co    -0.08333182    3.63786989   -0.03294149       3
Co    -3.69846109    0.07114347   -0.00815732       4
Cr    -0.10259150   -0.06541411   -3.59188966       5
Cr    -0.11800864    0.05731024    3.53190739       6
Co    -0.07474205   -1.67497608   -1.83240195       7
Co    -0.08378043   -1.62725271    1.72099806       8
Ni     1.66161579    0.08085964   -1.79417093       9
Cr     1.63557967    0.04276811    1.69828222      10
Ni    -1.83505166   -1.67818987   -0.04961630      11
Co     1.65377800    1.84204783   -0.03005948      12
Ni    -1.88228500    1.80064450   -0.05128422      13
Ni    -1.85124513    0.06372162   -1.78827470      14
Co    -1.86211244    0.04310323    1.74308676      15
Co    -0.09583851    1.82679884   -1.83110520      16
Ni    -0.10370721    1.77787411    1.69361864      17
Co     1.64661070   -1.63252304   -0.03200277      18
