          18
Lattice="  24.8920   0.0000   0.0000   0.0000  24.8920   0.0000   0.0000   0.0000  24.8920 " ConfE="      -5930.0710" DelE="          0.0000"
Ni     0.00911782    0.00934142    3.43479597       1
Ni     0.01726704    3.57796608   -0.07032564       2
Co     3.58602048   -0.02226258   -0.04556673       3
Co     0.00573159   -3.55330015   -0.03414803       4
Co    -3.55052391    0.03744342   -0.07236951       5
Cr     0.04546300    0.02973823   -3.65524020       6
Ni     1.78350838   -1.72754969   -0.03598011       7
Ni     1.79793723    1.72657374   -0.02732217       8
Cr     0.03943872   -1.77437850    1.67922658       9
Ni    -1.79258679    0.02435129    1.71493624      10
Ni    -0.02366376   -1.75136728   -1.82359817      11
Cr     0.09418393    1.76941960    1.72672396      12
Co    -1.76404804   -1.75167253   -0.05393289      13
Cr    -1.79606483    0.03099951   -1.83102658      14
Co     1.74148000    0.02597603   -1.85228064      15
Cr    -0.00442190    1.75158663   -1.80591443      16
Co    -1.72541707    1.77777126   -0.04190486      17
Cr     0.00000000    0.00000000    0.00000000      18
          18
Lattice="  24.8920   0.0000   0.0000   0.0000  24.8920   0.0000   0.0000   0.0000  24.8920 " ConfE="      -5929.4804" DelE="          0.5906"
Ni    -0.00181352    0.01773081    3.38303677       1
Ni     0.01362806    3.63713835   -0.09133654       2
Co     3.50023833   -0.01262731   -0.02865246       3
Co    -0.01515611   -3.63265684   -0.05278238       4
Co    -3.55317094    0.03523362   -0.06479882       5
Cr     0.04556600    0.03166624   -3.63032436       6
Ni     1.80064029   -1.87607430   -0.07800774       7
Ni     1.84232488    1.90051414   -0.09144598       8
Cr    -0.02109703   -1.92842440    1.66508767       9
Ni    -1.72429449    0.01856338    1.67430893      10
Ni    -0.01362042   -1.74818252   -1.77916771      11
Cr     0.02037801    1.97904366    1.74553851      12
Co    -1.72124266   -1.74284562   -0.03720484      13
Cr    -1.70161734    0.01899053   -1.73381018      14
Co     1.69935484    0.03402028   -1.77035583      15
Cr    -0.00429151    1.69302004   -1.71290438      16
Co    -1.63602798    1.72748025   -0.03944591      17
Cr     0.73559323    0.04303401    0.72528995      18
          18
Lattice="  24.8920   0.0000   0.0000   0.0000  24.8920   0.0000   0.0000   0.0000  24.8920 " ConfE="      -5930.1746" DelE="         -0.1036"
Ni    -0.00197130    0.00973179    3.46521636       1
Ni     0.01031602    3.61420089   -0.08222358       2
Co     3.60380056   -0.00994050   -0.05414923       3
Co     0.00053757   -3.59065275   -0.04326374       4
Co    -3.57123751    0.03709091   -0.07098669       5
Cr     0.03736878    0.03196464   -3.64014209       6
Ni     1.76935308   -1.73933617   -0.06387668       7
Ni     1.77453201    1.76190020   -0.07526747       8
Cr     0.00272096   -1.75253897    1.60315149       9
Ni    -1.71819317    0.01831168    1.66264069      10
Ni    -0.03485847   -1.72566594   -1.79266423      11
Cr     0.04844731    1.76651557    1.66083533      12
Co    -1.75143304   -1.74827551   -0.04997005      13
Cr    -1.75543053    0.03237934   -1.79490899      14
Co     1.70990433    0.03963533   -1.81644070      15
Cr    -0.02659394    1.69215154   -1.74513157      16
Co    -1.68581449    1.74532465   -0.06220357      17
Cr     1.82308613    0.03280485    1.67666380      18
