          18
Lattice="  24.8920   0.0000   0.0000   0.0000  24.8920   0.0000   0.0000   0.0000  24.8920 " ConfE="      -5941.0329" DelE="          0.0000"
Cr     0.02768498   -0.02503634    3.48074065       1
Cr     3.45788575    0.01429557    0.00463133       2
Ni    -3.52819259    0.00353503   -0.02926420       3
Co     0.02791232    3.60085546   -0.04099214       4
Co     0.01630080    0.03236464   -3.56919043       5
Co     0.02096168   -3.55239378   -0.03739212       6
Ni     0.00004512    1.77016721    1.75799259       7
Cr     1.76000990    1.73898979    0.03324472       8
Ni    -1.76303943   -0.01014384   -1.80390567       9
Co     0.00071147   -1.77519414    1.73140915      10
Cr     1.76380087   -1.73425079    0.00339281      11
Cr    -1.80727699   -0.00158839    1.79050360      12
Cr    -1.75384947    1.84705641   -0.05389828      13
Co     1.75880481    0.04963198   -1.84568258      14
Cr    -1.73597338   -1.83436192   -0.06961445      15
Cr    -0.00579115    1.83050939   -1.80310912      16
Cr     0.04070284   -1.80299567   -1.81468570      17
Ni     0.00000000    0.00000000    0.00000000      18
          18
Lattice="  24.8920   0.0000   0.0000   0.0000  24.8920   0.0000   0.0000   0.0000  24.8920 " ConfE="      -5940.5202" DelE="          0.5126"
Cr     0.01545904   -0.01284791    3.47407091       1
Cr     3.44607725    0.02272026    0.04609235       2
Ni    -3.53548905    0.00549627   -0.01691896       3
Co     0.01518814    3.67448925   -0.06554135       4
Co     0.02892686    0.03505727   -3.56932193       5
Co     0.00522233   -3.62362661   -0.07093819       6
Ni    -0.04195855    1.95169604    1.77134896       7
Cr     1.73981506    1.90126024   -0.05230602       8
Ni    -1.74087640   -0.01130512   -1.77568326       9
Co    -0.10822210   -1.98989839    1.74232352      10
Cr     1.75190770   -1.90909858   -0.10647849      11
Cr    -1.67611279    0.01988544    1.69170812      12
Cr    -1.67610407    1.79199488   -0.04919939      13
Co     1.74233628    0.04833452   -1.77082502      14
Cr    -1.65513313   -1.75665974   -0.05991968      15
Cr     0.00759415    1.76132470   -1.75050765      16
Cr     0.04621303   -1.74940948   -1.77932290      17
Ni     1.03109402   -0.03501474    1.11922492      18
          18
Lattice="  24.8920   0.0000   0.0000   0.0000  24.8920   0.0000   0.0000   0.0000  24.8920 " ConfE="      -5941.0395" DelE="         -0.0066"
Cr    -0.03395870   -0.03244004    3.57781567       1
Cr     3.49350362    0.01756076   -0.06378558       2
Ni    -3.52378681    0.01076078   -0.03326476       3
Co     0.02582940    3.61736307   -0.04762112       4
Co     0.01892155    0.03758813   -3.61575593       5
Co    -0.00119179   -3.57340757   -0.05206161       6
Ni    -0.00552793    1.76898281    1.78504608       7
Cr     1.57000217    1.59706917   -0.05841580       8
Ni    -1.72329688   -0.00162743   -1.81450069       9
Co    -0.04183258   -1.77277050    1.71467924      10
Cr     1.60426920   -1.63654310   -0.07211667      11
Cr    -1.74240044    0.01128622    1.75020531      12
Cr    -1.60593958    1.71831115   -0.06592061      13
Co     1.72037226    0.04160927   -1.84697491      14
Cr    -1.59184256   -1.67534846   -0.07311793      15
Cr    -0.01091060    1.83500847   -1.87411474      16
Cr     0.02154582   -1.79911634   -1.86198791      17
Ni     1.74078107   -0.01869290    1.79421763      18
