          18
Lattice="  24.8920   0.0000   0.0000   0.0000  24.8920   0.0000   0.0000   0.0000  24.8920 " ConfE="      -5944.7791" DelE="          0.0000"
Ni     0.02449670   -3.42470396   -0.00585118       1
Ni     0.08335291    0.06931234    3.52385480       2
Cr    -3.42235484    0.01806987   -0.05066146       3
Co     0.09152589    3.64756194    0.00811262       4
Co     0.01289512    0.03797418   -3.56433050       5
Cr     3.71421445   -0.09376777   -0.08374651       6
Ni    -1.71411330    0.03542287    1.74130719       7
Ni     1.84478886   -1.69961694   -0.00877495       8
Co    -0.00397485   -1.71532988   -1.78041899       9
Ni     0.05807053    1.81522442   -1.77328683      10
Ni     1.82572283    0.04115305   -1.79021301      11
Ni    -1.70656704    1.86382236   -0.01815375      12
Cr    -1.72711057   -0.05349389   -1.75873699      13
Cr     0.02176464   -1.72990542    1.74787872      14
Ni     1.86401142    0.04542232    1.75434363      15
Cr     1.83010169    1.77219460   -0.01974772      16
Cr     0.06413067    1.84468741    1.73449812      17
Co     0.00000000    0.00000000    0.00000000      18
          18
Lattice="  24.8920   0.0000   0.0000   0.0000  24.8920   0.0000   0.0000   0.0000  24.8920 " ConfE="      -5944.2352" DelE="          0.5439"
Ni     0.03880842   -3.40709083   -0.01915421       1
Ni     0.10271261    0.08809852    3.58266834       2
Cr    -3.36651519   -0.03060065   -0.03429323       3
Co     0.07958079    3.63951523    0.00947301       4
Co     0.02853016    0.05118441   -3.61201380       5
Cr     3.70570009   -0.11077070   -0.08332975       6
Ni    -1.71147951    0.10691355    1.88276194       7
Ni     1.78415011   -1.66473166   -0.00963758       8
Co     0.06911539   -1.80237490   -1.98150381       9
Ni     0.04796980    1.77090281   -1.75534845      10
Ni     1.79151952    0.02380777   -1.78786081      11
Ni    -1.68698900    1.80190797   -0.00707858      12
Cr    -1.74484525   -0.01794768   -1.86634646      13
Cr     0.11289894   -1.72707033    1.89549638      14
Ni     1.84443968    0.04654670    1.75960255      15
Cr     1.77370370    1.71467307   -0.01627528      16
Cr     0.06851089    1.80057037    1.71849398      17
Co    -0.85706893   -0.97215657   -0.00254734      18
          18
Lattice="  24.8920   0.0000   0.0000   0.0000  24.8920   0.0000   0.0000   0.0000  24.8920 " ConfE="      -5944.8513" DelE="         -0.0723"
Ni     0.06471137   -3.47662250   -0.01279693       1
Ni     0.09132083    0.07798140    3.53939293       2
Cr    -3.48329219    0.06350955   -0.04001960       3
Co     0.08697056    3.65918038    0.00860503       4
Co     0.01704458    0.04210154   -3.57866357       5
Cr     3.73328273   -0.09791010   -0.08206564       6
Ni    -1.67268407    0.07196780    1.73702532       7
Ni     1.80154248   -1.67220482   -0.00422466       8
Co     0.02873626   -1.69533909   -1.78137471       9
Ni     0.05883236    1.79098620   -1.75034140      10
Ni     1.81155836    0.05102039   -1.76387494      11
Ni    -1.68361213    1.82680979   -0.02015265      12
Cr    -1.72190275   -0.02341522   -1.76663489      13
Cr     0.04201746   -1.70975547    1.74049595      14
Ni     1.84262667    0.05493997    1.73572173      15
Cr     1.81319053    1.76571125   -0.01148849      16
Cr     0.07806606    1.84592440    1.71350594      17
Co    -1.67253387   -1.62981085   -0.04112579      18
