          18
Lattice="  24.8920   0.0000   0.0000   0.0000  24.8920   0.0000   0.0000   0.0000  24.8920 " ConfE="      -5940.6897" DelE="          0.0000"
Co     0.03092874    3.55290641   -0.03998144       1
Cr    -0.05052183    0.03609490   -3.57689016       2
Cr     0.01113642    0.06036518    3.55993563       3
Co    -0.00030150   -3.49293470    0.03220699       4
Cr    -3.51338919    0.05189282   -0.04572749       5
Cr     3.55648070    0.04449154   -0.02757500       6
Ni    -1.72610488    1.79468678   -0.06719340       7
Ni     1.71640822    0.06186146   -1.81593965       8
Ni     0.00994142   -1.75822682   -1.80703919       9
Co     1.74347953    1.78616779   -0.04176674      10
Co    -1.73566936    0.05308346   -1.80719364      11
Ni     1.79494227    0.04460349    1.75143515      12
Ni    -1.76927792   -1.73927851   -0.02364158      13
Co    -0.00615692    1.78901589    1.78795035      14
Cr    -0.00929719   -1.66384966    1.74709960      15
Co    -1.78481389    0.04906776    1.76536879      16
Co     1.79238590   -1.72728906   -0.01298332      17
Cr     0.00000000    0.00000000    0.00000000      18
          18
Lattice="  24.8920   0.0000   0.0000   0.0000  24.8920   0.0000   0.0000   0.0000  24.8920 " ConfE="      -5939.6866" DelE="          1.0031"
Co     0.01515522    3.51435832   -0.03676906       1
Cr    -0.01750200    0.06360101   -3.55754110       2
Cr     0.01697386    0.07435987    3.54321049       3
Co    -0.00143938   -3.48214741    0.02392580       4
Cr    -3.61489718    0.00431030   -0.03004791       5
Cr     3.65496811    0.01629919   -0.01250851       6
Ni    -1.90365934    1.81647563    0.02337689       7
Ni     1.87793148    0.00743554   -1.82431269       8
Ni     0.02155704   -1.65351324   -1.77850666       9
Co     1.86339937    1.80506955   -0.00547901      10
Co    -1.85456760    0.05105961   -1.79906735      11
Ni     1.76928135    0.06384594    1.70372274      12
Ni    -1.72052006   -1.66733057   -0.03285750      13
Co    -0.01941306    1.76210291    1.70101839      14
Cr    -0.01176223   -1.57213658    1.69577158      15
Co    -1.75479011    0.05364099    1.73202896      16
Co     1.77063794   -1.68361958   -0.00775934      17
Cr     0.00366202    0.97798341   -0.92020161      18
          18
Lattice="  24.8920   0.0000   0.0000   0.0000  24.8920   0.0000   0.0000   0.0000  24.8920 " ConfE="      -5940.7027" DelE="         -0.0130"
Co     0.01973620    3.60875782   -0.02618015       1
Cr    -0.03839802    0.02619198   -3.59980836       2
Cr     0.01538383    0.05215871    3.56213332       3
Co    -0.00085079   -3.53059196    0.03849008       4
Cr    -3.54470333    0.03855047   -0.04510815       5
Cr     3.58768782    0.02917121   -0.01699763       6
Ni    -1.73061724    1.77549789   -0.05231906       7
Ni     1.74200482    0.02003799   -1.78243078       8
Ni     0.00682518   -1.71181480   -1.77143193       9
Co     1.74340307    1.78329714   -0.03954141      10
Co    -1.75416156    0.04388515   -1.79483754      11
Ni     1.75984026    0.04225586    1.72317844      12
Ni    -1.73372545   -1.71404023   -0.01760904      13
Co    -0.00483589    1.77019863    1.73129203      14
Cr    -0.01513797   -1.61903254    1.72201887      15
Co    -1.74300954    0.03964550    1.73700270      16
Co     1.77576331   -1.72214692    0.01069112      17
Cr     0.02916950    1.77294127   -1.79919158      18
