          18
Lattice="  24.8920   0.0000   0.0000   0.0000  24.8920   0.0000   0.0000   0.0000  24.8920 " ConfE="      -5938.0034" DelE="          0.0000"
Co    -0.02551305    0.03496958    3.49727157       1
Co     3.54448821   -0.07386766    0.01485241       2
Co    -0.05368569   -0.05669941   -3.64620487       3
Co    -3.57676845    0.01379663    0.00601039       4
Co     0.03495223   -3.55608242   -0.01552511       5
Ni    -0.00076083    3.49225240   -0.02317416       6
Co     0.04214612   -1.76027813    1.74294522       7
Cr    -0.00743071    1.72905725    1.79027899       8
Ni     1.77367444   -1.78022235   -0.00495606       9
Ni     1.75144780    1.69239796    0.02004011      10
Ni    -1.79188623   -0.01778087    1.73787926      11
Ni     1.75752878    0.00223056   -1.82655836      12
Co    -1.80684142   -0.01630012   -1.78842970      13
Cr    -1.79706029   -1.78120342    0.00118033      14
Co    -1.80574632    1.75594419   -0.02348294      15
Ni    -0.03179595   -1.75905687   -1.80701834      16
Co    -0.04135195    1.76591309   -1.83799313      17
Ni     0.00000000    0.00000000    0.00000000      18
          18
Lattice="  24.8920   0.0000   0.0000   0.0000  24.8920   0.0000   0.0000   0.0000  24.8920 " ConfE="      -5936.5575" DelE="          1.4459"
Co     0.00295222   -0.01793220    3.49171141       1
Co     3.49808503   -0.04811359    0.00852418       2
Co    -0.04842055   -0.05588270   -3.64324988       3
Co    -3.56591241    0.00661417    0.02309013       4
Co     0.02734734   -3.63489505   -0.05677532       5
Ni    -0.00765165    3.57680218   -0.04094322       6
Co    -0.05514532   -2.02091950    1.75689832       7
Cr    -0.04851424    1.90761635    1.79178738       8
Ni     1.80273775   -1.91684434   -0.04595523       9
Ni     1.78589837    1.86480815   -0.04743214      10
Ni    -1.67857596   -0.04185408    1.69529952      11
Ni     1.71128721    0.01420303   -1.74408304      12
Co    -1.74268677   -0.02862979   -1.71322179      13
Cr    -1.74829152   -1.77536465   -0.00377320      14
Co    -1.72469458    1.73861768   -0.00208879      15
Ni    -0.02046084   -1.75463582   -1.77582069      16
Co    -0.03344062    1.76675501   -1.79212385      17
Ni     0.82579399   -0.02144870    0.92730059      18
          18
Lattice="  24.8920   0.0000   0.0000   0.0000  24.8920   0.0000   0.0000   0.0000  24.8920 " ConfE="      -5938.0856" DelE="         -0.0822"
Co    -0.05504726    0.02534620    3.53678354       1
Co     3.56329394   -0.05939859   -0.05317770       2
Co    -0.05277919   -0.05469502   -3.64501701       3
Co    -3.56921927    0.01644364    0.01039554       4
Co     0.04049861   -3.55967706   -0.02081234       5
Ni     0.00099712    3.49838301   -0.03014310       6
Co     0.01214618   -1.79761334    1.73862333       7
Cr    -0.00974984    1.76312773    1.77153491       8
Ni     1.78131380   -1.79277119   -0.03588243       9
Ni     1.76713915    1.73410092   -0.03388536      10
Ni    -1.76618414   -0.01175555    1.73769593      11
Ni     1.75925828    0.00405827   -1.82772900      12
Co    -1.81012445   -0.01345120   -1.79444076      13
Cr    -1.80803560   -1.78417903   -0.00701302      14
Co    -1.80754775    1.76179874   -0.02906658      15
Ni    -0.03266662   -1.76169169   -1.80929820      16
Co    -0.04417849    1.77669037   -1.85072886      17
Ni    -0.01025572    0.00394745   -0.03096581      18
