          18
Lattice="  24.8920   0.0000   0.0000   0.0000  24.8920   0.0000   0.0000   0.0000  24.8920 " ConfE="      -5946.6305" DelE="          0.0000"
Ni     0.00585564   -3.51099281    0.00366903       1
Cr     3.49695364   -0.00222768    0.00356957       2
Ni    -0.00616612    3.58575766    0.00709483       3
Cr    -3.58283691    0.05872686   -0.03296888       4
Cr     0.05904924    0.04754553    3.45738155       5
Cr     0.03817379    0.00879709   -3.58650322       6
Ni     0.02330957   -1.75671416    1.74118996       7
Cr     0.04797467   -1.76513644   -1.75967268       8
Co     1.78550924    0.00384323    1.74253438       9
Ni     1.76455499   -0.00460718   -1.74208552      10
Cr    -1.81534659   -1.77106417   -0.00307364      11
Cr     1.77769871    1.83091224    0.01880789      12
Cr    -1.80323040    1.88476289    0.05317671      13
Ni    -1.80063108    0.02558012    1.74555081      14
Ni    -1.77363976    0.02347208   -1.74984299      15
Co     0.00262172    1.77942181    1.79473438      16
Ni    -0.00490471    1.78771472   -1.77923541      17
Ni     0.00000000    0.00000000    0.00000000      18
          18
Lattice="  24.8920   0.0000   0.0000   0.0000  24.8920   0.0000   0.0000   0.0000  24.8920 " ConfE="      -5946.0412" DelE="          0.5893"
Ni     0.00512740   -3.44003518    0.00145766       1
Cr     3.39967067   -0.05068215   -0.00362851       2
Ni    -0.00223612    3.58120407    0.00208908       3
Cr    -3.59953826    0.04895762   -0.03161839       4
Cr     0.03851193    0.02963604    3.53503192       5
Cr     0.03373507    0.02028756   -3.65807271       6
Ni    -0.02148850   -1.80928009    1.89613975       7
Cr     0.01538356   -1.79325265   -1.93990547       8
Co     1.78044666    0.00974372    1.94842642       9
Ni     1.80572300    0.03247367   -1.91828593      10
Cr    -1.76281083   -1.68933724    0.00917665      11
Cr     1.69214020    1.71742131    0.03557872      12
Cr    -1.68862387    1.75160048    0.05605297      13
Ni    -1.77514725   -0.00143530    1.76396931      14
Ni    -1.72829668    0.00833094   -1.74372162      15
Co     0.00701517    1.74049732    1.76195575      16
Ni     0.01088918    1.76394717   -1.80069398      17
Ni     0.62053856   -0.63678746   -0.01296194      18
          18
Lattice="  24.8920   0.0000   0.0000   0.0000  24.8920   0.0000   0.0000   0.0000  24.8920 " ConfE="      -5946.7363" DelE="         -0.1058"
Ni    -0.02915945   -3.56641875    0.01379439       1
Cr     3.55442462    0.03548295   -0.00973719       2
Ni     0.00019978    3.61236754    0.00709343       3
Cr    -3.63764596    0.05332280   -0.02797422       4
Cr     0.03418894    0.04423296    3.48625245       5
Cr     0.03733558    0.02479923   -3.60200161       6
Ni    -0.02213347   -1.73206516    1.73186126       7
Cr    -0.00168166   -1.73357999   -1.74437313       8
Co     1.74659789    0.03637778    1.73855808       9
Ni     1.74547220    0.01381195   -1.72421229      10
Cr    -1.75467713   -1.73318551   -0.01662293      11
Cr     1.72416992    1.75308505    0.06612580      12
Cr    -1.77474479    1.88124678    0.08342649      13
Ni    -1.79446880    0.02350893    1.70786060      14
Ni    -1.74315285    0.04132528   -1.68083645      15
Co    -0.01328661    1.75356985    1.72123882      16
Ni    -0.00095717    1.76598845   -1.72691704      17
Ni     1.74240374   -1.76480791    0.00766041      18
