          18
Lattice="  24.8920   0.0000   0.0000   0.0000  24.8920   0.0000   0.0000   0.0000  24.8920 " ConfE="      -5926.0906" DelE="          0.0000"
Co     0.00009054   -3.48288076    0.00832990       1
Cr     3.45835969   -0.09914382    0.00863639       2
Ni    -3.57327292    0.02723085   -0.00655895       3
Co    -0.02884532   -0.00189892    3.56624004       4
Co    -0.02351196    3.57746799    0.04269567       5
Co    -0.04237683   -0.02616445   -3.52901631       6
Ni    -0.00360370   -1.71387665    1.73120888       7
Co     1.77291066   -0.00915370    1.78284863       8
Ni     1.75139987    1.80528385    0.03325667       9
Co     1.72918645   -0.06096927   -1.72331746      10
Cr    -0.00912316   -1.70403761   -1.71699412      11
Ni    -1.80094809    1.78853680    0.00005561      12
Ni    -0.00651197    1.78938053   -1.74710476      13
Cr    -1.79152515   -1.74359528    0.00694796      14
Co    -1.80811520    0.02437865    1.79880846      15
Co    -1.80169013   -0.00686366   -1.78195266      16
Cr    -0.03558742    1.75716699    1.79499266      17
Co     0.00000000    0.00000000    0.00000000      18
          18
Lattice="  24.8920   0.0000   0.0000   0.0000  24.8920   0.0000   0.0000   0.0000  24.8920 " ConfE="      -5925.5144" DelE="          0.5761"
Co     0.00795881   -3.39156296    0.03058888       1
Cr     3.40503066   -0.11711566   -0.01226350       2
Ni    -3.57553959    0.02362996   -0.00095610       3
Co    -0.05180674    0.02294892    3.63115730       4
Co    -0.01564488    3.57060680    0.04690479       5
Co    -0.07354526   -0.00885687   -3.58419017       6
Ni    -0.08266134   -1.72578578    1.91343745       7
Co     1.77658829   -0.00273835    1.94323971       8
Ni     1.72137876    1.73370292    0.03355137       9
Co     1.76406891    0.03233000   -1.95945963      10
Cr    -0.04747523   -1.71294551   -1.85013843      11
Ni    -1.76375900    1.76117694    0.00916668      12
Ni    -0.00601056    1.76469870   -1.73398063      13
Cr    -1.73296203   -1.69577619    0.00455278      14
Co    -1.78430885    0.03447205    1.79360028      15
Co    -1.72838409   -0.03361265   -1.71809990      16
Cr    -0.02471293    1.68326234    1.77850826      17
Co     0.66405127   -0.63840954   -0.03769269      18
          18
Lattice="  24.8920   0.0000   0.0000   0.0000  24.8920   0.0000   0.0000   0.0000  24.8920 " ConfE="      -5926.1849" DelE="         -0.0944"
Co    -0.05178697   -3.52776035    0.01128632       1
Cr     3.56258768   -0.03727075    0.00227609       2
Ni    -3.59564677    0.03146730   -0.00180697       3
Co    -0.03910101    0.00008111    3.58653588       4
Co    -0.01950109    3.58656611    0.04808550       5
Co    -0.05484930   -0.02063998   -3.54916984       6
Ni    -0.05975196   -1.66410272    1.71533528       7
Co     1.74459558    0.01727549    1.80242537       8
Ni     1.72387472    1.74447537    0.03673498       9
Co     1.70124764   -0.01300890   -1.75498275      10
Cr    -0.04467215   -1.65068315   -1.70660428      11
Ni    -1.77836392    1.77190342    0.01205465      12
Ni    -0.01342850    1.76631733   -1.71433576      13
Cr    -1.76835712   -1.70328069   -0.00370666      14
Co    -1.79773600    0.05162492    1.78447738      15
Co    -1.75266176   -0.03062619   -1.71490607      16
Cr    -0.04068438    1.73583563    1.78171305      17
Co     1.68887998   -1.70462870    0.00124258      18
