          18
Lattice="  24.8920   0.0000   0.0000   0.0000  24.8920   0.0000   0.0000   0.0000  24.8920 " ConfE="      -5924.9006" DelE="          0.0000"
Ni     0.04905955    0.00253142    3.46281634       1
Ni    -3.58032941    0.05318505   -0.06519502       2
Co     0.04035963   -3.43392188   -0.02819671       3
Co     3.62823445    0.00663623   -0.04365985       4
Cr     0.03797307    3.56090103   -0.12696422       5
Co     0.05122415    0.06793373   -3.58397621       6
Ni     1.80368872   -0.02208534    1.71401484       7
Ni     1.82924477    1.78144775   -0.06191453       8
Cr     1.79330764   -1.73779775   -0.05955479       9
Ni     0.01863480   -1.71528024   -1.85948404      10
Cr    -1.70198470   -0.01273737    1.68690307      11
Cr    -1.76319708   -1.65900709   -0.07418501      12
Cr     0.06432586    1.81666205    1.69490139      13
Cr     1.80099152    0.00508365   -1.76364946      14
Co     0.03096590    1.81733021   -1.78695102      15
Co    -1.75313399    0.04502306   -1.79357329      16
Cr    -1.76083877    1.73617188   -0.12785109      17
Co     0.00000000    0.00000000    0.00000000      18
          18
Lattice="  24.8920   0.0000   0.0000   0.0000  24.8920   0.0000   0.0000   0.0000  24.8920 " ConfE="      -5924.4207" DelE="          0.4798"
Ni     0.05160974   -0.01563545    3.45622859       1
Ni    -3.62332460    0.07048261   -0.07079582       2
Co     0.02043648   -3.44478479   -0.05355957       3
Co     3.68141537    0.02314299   -0.05206548       4
Cr     0.05824915    3.57547405   -0.09904619       5
Co     0.05064702    0.06965168   -3.58673040       6
Ni     1.92991779    0.03117557    1.73549110       7
Ni     1.81913743    1.74990084   -0.05353947       8
Cr     1.95240058   -1.71495710   -0.16137410       9
Ni     0.02203674   -1.67219558   -1.79539634      10
Cr    -1.81045607    0.03338050    1.70716528      11
Cr    -1.89866441   -1.65098269   -0.15487739      12
Cr     0.04247502    1.66624333    1.63239787      13
Cr     1.77276141    0.02303326   -1.74576144      14
Co     0.03078682    1.78531622   -1.75049305      15
Co    -1.74238096    0.04368747   -1.77153374      16
Cr    -1.69230071    1.65437898   -0.13853056      17
Co     0.01644003   -1.04937687    0.90491649      18
          18
Lattice="  24.8920   0.0000   0.0000   0.0000  24.8920   0.0000   0.0000   0.0000  24.8920 " ConfE="      -5924.8299" DelE="          0.0707"
Ni     0.04348729    0.02451611    3.50239447       1
Ni    -3.59183978    0.06265922   -0.06672052       2
Co     0.01177341   -3.51029093   -0.08425677       3
Co     3.64738836    0.01118003   -0.04564004       4
Cr     0.05496030    3.59770232   -0.13112103       5
Co     0.05456457    0.07170111   -3.59278790       6
Ni     1.80549182    0.01926943    1.68741828       7
Ni     1.80560308    1.76213762   -0.06834065       8
Cr     1.79064272   -1.70947074   -0.08741503       9
Ni     0.02543728   -1.68974768   -1.81836350      10
Cr    -1.66287147    0.02306110    1.63767601      11
Cr    -1.73985430   -1.61848832   -0.09821817      12
Cr     0.04770804    1.75441995    1.65178808      13
Cr     1.78611200    0.00296060   -1.74650386      14
Co     0.02648114    1.79480356   -1.75576556      15
Co    -1.72540404    0.04418378   -1.76386720      16
Cr    -1.69831231    1.69392154   -0.15129174      17
Co     0.02222052   -1.68101601    1.62209954      18
