          18
Lattice="  24.8920   0.0000   0.0000   0.0000  24.8920   0.0000   0.0000   0.0000  24.8920 " ConfE="      -5949.0618" DelE="          0.0000"
Ni    -0.00627051    3.58626966   -0.00387312       1
Co    -3.51556129    0.08202046   -0.03182430       2
Co     0.04849322   -3.49715765   -0.03663103       3
Ni     3.53240707    0.01637411   -0.00292100       4
Cr     0.01828896    0.07430269    3.53343326       5
Co     0.02799031    0.01459382   -3.62095348       6
Ni    -0.03739168    1.81057520    1.70194438       7
Ni    -0.00623195    1.80513966   -1.77914998       8
Co    -1.72091565    0.05931895    1.67749038       9
Ni    -1.75059547    0.08898435   -1.77964705      10
Ni     1.77027766    1.80687682    0.00073489      11
Ni    -1.73980956   -1.75828482   -0.04220300      12
Cr     1.71856452   -1.78908921   -0.00732404      13
Cr     1.71944924    0.00756387    1.80764765      14
Ni     1.76532739    0.03558418   -1.77807353      15
Co     0.02558657   -1.75065144    1.77163743      16
Co     0.01977711   -1.73192070   -1.84491969      17
Cr     0.00000000    0.00000000    0.00000000      18
          18
Lattice="  24.8920   0.0000   0.0000   0.0000  24.8920   0.0000   0.0000   0.0000  24.8920 " ConfE="      -5948.1931" DelE="          0.8687"
Ni    -0.02386931    3.53826651   -0.01238715       1
Co    -3.46350521    0.11064752   -0.03779040       2
Co     0.03336101   -3.48944328   -0.02776310       3
Ni     3.51988672    0.03471058   -0.00046361       4
Cr     0.08437573    0.06398341    3.65076152       5
Co     0.03513757    0.00217463   -3.70048469       6
Ni     0.02541454    1.86790568    1.87572628       7
Ni     0.04216866    1.83008556   -1.95196736       8
Co    -1.72565896    0.04637090    1.82725705       9
Ni    -1.75881222    0.06346638   -1.94068896      10
Ni     1.69671639    1.78325411   -0.00070461      11
Ni    -1.67583924   -1.62618122   -0.03871579      12
Cr     1.59345633   -1.66905455   -0.01640769      13
Cr     1.59917720    0.01194372    1.73395366      14
Ni     1.72484735    0.05561012   -1.76517921      15
Co     0.03133129   -1.68738716    1.75853429      16
Co     0.01342449   -1.69061682   -1.83249924      17
Cr    -0.86106475    0.93596908   -0.02169209      18
          18
Lattice="  24.8920   0.0000   0.0000   0.0000  24.8920   0.0000   0.0000   0.0000  24.8920 " ConfE="      -5949.4237" DelE="         -0.3619"
Ni     0.01563103    3.61862301   -0.00353595       1
Co    -3.57020802    0.05385604   -0.03244641       2
Co     0.05217296   -3.53537984   -0.02932907       3
Ni     3.54184346    0.01682371   -0.00079854       4
Cr     0.04849695    0.07643706    3.56703635       5
Co     0.02691611    0.01436206   -3.63821759       6
Ni    -0.00129320    1.79560855    1.71605914       7
Ni    -0.00756495    1.80457853   -1.77700468       8
Co    -1.69933918    0.06083347    1.67544826       9
Ni    -1.73228780    0.07533020   -1.77708064      10
Ni     1.72888984    1.77680112    0.00307685      11
Ni    -1.69249918   -1.69995389   -0.04355296      12
Cr     1.65003153   -1.72490994   -0.01372925      13
Cr     1.68174638   -0.01968607    1.77431855      14
Ni     1.73778951    0.03242749   -1.75387648      15
Co     0.05740945   -1.70318792    1.72235645      16
Co     0.02736921   -1.72594126   -1.82867152      17
Cr    -1.81196960    1.82089296    0.03671700      18
