          18
Lattice="  24.8920   0.0000   0.0000   0.0000  24.8920   0.0000   0.0000   0.0000  24.8920 " ConfE="      -5947.8862" DelE="          0.0000"
Ni    -0.00641573   -0.04088054    3.49986849       1
Ni     3.41497192   -0.09750289    0.00297065       2
Ni    -0.05404024   -0.07595096   -3.61856728       3
Cr    -0.08215100   -3.65258099   -0.03388399       4
Cr    -0.14562697    3.44092052   -0.02005742       5
Cr    -3.64192509   -0.07291806   -0.02180968       6
Ni    -0.01686302   -1.78682779    1.73552687       7
Ni     1.71451092   -0.04819242   -1.83786010       8
Ni    -0.06496207   -1.83566435   -1.82248074       9
Co     1.67642987   -1.88159399   -0.01668164      10
Co     1.65048492    1.67386787    0.04627128      11
Cr    -0.03794582    1.67074635    1.72757179      12
Co    -0.08813156    1.69218484   -1.77780508      13
Cr    -1.85916616   -0.10176960   -1.79939261      14
Co    -1.86876544   -0.11488938    1.72735728      15
Cr    -1.82259484   -1.85316446   -0.02679561      16
Co    -1.85971599    1.65547686   -0.02339874      17
Cr     0.00000000    0.00000000    0.00000000      18
          18
Lattice="  24.8920   0.0000   0.0000   0.0000  24.8920   0.0000   0.0000   0.0000  24.8920 " ConfE="      -5947.1647" DelE="          0.7214"
Ni    -0.01932802   -0.07153745    3.45296635       1
Ni     3.38049875   -0.08948275    0.01468097       2
Ni    -0.04582732   -0.07374197   -3.60480836       3
Cr    -0.12150168   -3.74273781   -0.07946041       4
Cr    -0.15296182    3.53227010   -0.05998407       5
Cr    -3.62089957   -0.07334471   -0.01912319       6
Ni    -0.06276842   -1.97399127    1.76906851       7
Ni     1.66436939   -0.04037919   -1.74561872       8
Ni    -0.06588296   -1.83374178   -1.78250213       9
Co     1.66930032   -1.96611108   -0.02589116      10
Co     1.70258801    1.82915854   -0.01629872      11
Cr    -0.13100362    1.78704800    1.74530630      12
Co    -0.06739812    1.69528251   -1.73331963      13
Cr    -1.78570096   -0.08588489   -1.72354274      14
Co    -1.80004571   -0.15358563    1.68965064      15
Cr    -1.75156288   -1.81112082   -0.00461321      16
Co    -1.76605848    1.59952918   -0.01695557      17
Cr     0.75990271   -0.00447371    0.82135644      18
          18
Lattice="  24.8920   0.0000   0.0000   0.0000  24.8920   0.0000   0.0000   0.0000  24.8920 " ConfE="      -5947.7636" DelE="          0.1226"
Ni    -0.04480477   -0.05723845    3.53752638       1
Ni     3.48265745   -0.07998134   -0.05025177       2
Ni    -0.05377118   -0.07501195   -3.61612359       3
Cr    -0.09300310   -3.66423443   -0.04172998       4
Cr    -0.15107869    3.47637536   -0.03608231       5
Cr    -3.64642741   -0.06985648   -0.02191233       6
Ni    -0.05446779   -1.80992379    1.71153605       7
Ni     1.68247435   -0.04696149   -1.78362952       8
Ni    -0.07868608   -1.81847475   -1.79679327       9
Co     1.66837537   -1.87313378   -0.02876284      10
Co     1.63559850    1.67004416    0.02665569      11
Cr    -0.08341373    1.65457678    1.66486349      12
Co    -0.08896038    1.68351392   -1.75299599      13
Cr    -1.81687523   -0.08977725   -1.74584487      14
Co    -1.82756554   -0.12792701    1.69819238      15
Cr    -1.82757104   -1.83012469   -0.03368605      16
Co    -1.80794618    1.60213847   -0.02934072      17
Cr     1.64701170   -0.05062675    1.66089674      18
