          18
Lattice="  24.8920   0.0000   0.0000   0.0000  24.8920   0.0000   0.0000   0.0000  24.8920 " ConfE="      -5949.7000" DelE="          0.0000"
Cr     0.02702411   -0.00903073   -3.54175877       1
Ni     0.04948110   -3.55526091    0.02262401       2
Ni     0.06219461   -0.04923882    3.56266400       3
Co     0.07618854    3.48269229   -0.07379638       4
Ni     3.60820096   -0.05670748    0.03209168       5
Co    -3.50417118   -0.03337444    0.03797705       6
Ni    -1.71282920   -0.03833531   -1.76664590       7
Ni     1.75991269   -0.00627216   -1.76797030       8
Ni     1.80007900    1.72408922    0.00970539       9
Cr    -1.61993529    1.68362113   -0.01952535      10
Ni     1.79632893   -1.78449280    0.01642273      11
Ni     1.81468911   -0.04510284    1.79231454      12
Co    -1.70120567   -1.77202261    0.03482265      13
Co    -1.71989847   -0.03994455    1.80366785      14
Co     0.04851408   -1.81780877   -1.79924222      15
Cr     0.01856371   -1.81245465    1.82286533      16
Co     0.02576407    1.75819323    1.82141483      17
Co     0.00000000    0.00000000    0.00000000      18
          18
Lattice="  24.8920   0.0000   0.0000   0.0000  24.8920   0.0000   0.0000   0.0000  24.8920 " ConfE="      -5948.9643" DelE="          0.7357"
Cr     0.02207796    0.04734022   -3.45934343       1
Ni     0.05110054   -3.55611416    0.00415670       2
Ni     0.06746361   -0.04680609    3.56126049       3
Co     0.08674538    3.41633720   -0.08376649       4
Ni     3.66484172   -0.06799758    0.04116520       5
Co    -3.55320367   -0.05023328    0.05462585       6
Ni    -1.88341159   -0.10492961   -1.80228896       7
Ni     1.92351160   -0.04255562   -1.79172427       8
Ni     1.95868562    1.75239975    0.05948630       9
Cr    -1.82297322    1.73644039   -0.00065200      10
Ni     1.77568001   -1.74700630    0.00217594      11
Ni     1.80452347   -0.03604039    1.75512843      12
Co    -1.66029803   -1.73010498    0.04198764      13
Co    -1.68182237   -0.03344137    1.75215838      14
Co     0.03476697   -1.70386625   -1.77445094      15
Cr    -0.00764486   -1.74419808    1.75084004      16
Co     0.02170228    1.71393071    1.74937590      17
Co    -0.00608424    0.77931097   -0.74153183      18
          18
Lattice="  24.8920   0.0000   0.0000   0.0000  24.8920   0.0000   0.0000   0.0000  24.8920 " ConfE="      -5950.0153" DelE="         -0.3153"
Cr     0.01725129   -0.05263301   -3.58213743       1
Ni     0.05803242   -3.58001701    0.02128936       2
Ni     0.06063524   -0.05366720    3.57032765       3
Co     0.07429731    3.54947284   -0.02684247       4
Ni     3.62407269   -0.06735026    0.03436339       5
Co    -3.51679802   -0.04050405    0.04542870       6
Ni    -1.69821316   -0.05267354   -1.72654532       7
Ni     1.77286407   -0.04004938   -1.75358392       8
Ni     1.79142432    1.70018960    0.02611594       9
Cr    -1.61528549    1.66082995    0.02273978      10
Ni     1.76413474   -1.76855771    0.01976476      11
Ni     1.78320118   -0.05777647    1.77125963      12
Co    -1.62288102   -1.74046860    0.05773883      13
Co    -1.66929732   -0.03585464    1.75316238      14
Co     0.05724105   -1.79864863   -1.79262679      15
Cr     0.01006616   -1.81706210    1.81641707      16
Co     0.01191102    1.73020664    1.76171305      17
Co     0.03574399    1.72633995   -1.74958217      18
