          18
Lattice="  24.8920   0.0000   0.0000   0.0000  24.8920   0.0000   0.0000   0.0000  24.8920 " ConfE="      -5927.8088" DelE="          0.0000"
Ni    -0.04819701    0.01181388    3.66926019       1
Cr     0.20879560   -0.08568715   -3.09634958       2
Cr     3.44511200    0.01410522    0.03738913       3
Co    -3.66351612    0.01161127    0.14967961       4
Co    -0.04333113   -3.61114594    0.16086778       5
Cr    -0.01592349    3.59879027    0.15865786       6
Ni     1.72076173   -1.75448243    0.12003213       7
Ni     1.72949458    1.75983108    0.09885634       8
Ni    -0.05146453   -1.75781444    1.87698227       9
Ni    -0.05861525    1.75425891    1.88249179      10
Co    -0.04582919   -1.82048272   -1.60396232      11
Cr    -0.05967052    1.83376042   -1.62148258      12
Ni    -1.83275455   -1.80102171    0.14416277      13
Co     1.73847307    0.00892441    1.89821071      14
Cr    -1.84488689    0.00701098    1.87321112      15
Cr    -1.90082253   -0.01938100   -1.64648694      16
Co    -1.85206959    1.78185254    0.11201386      17
Cr     0.00000000    0.00000000    0.00000000      18
          18
Lattice="  24.8920   0.0000   0.0000   0.0000  24.8920   0.0000   0.0000   0.0000  24.8920 " ConfE="      -5923.3695" DelE="          4.4393"
Ni    -0.08504580    0.01221752    3.64386764       1
Cr     0.19326531   -0.07677378   -3.17873233       2
Cr     3.55702447    0.07034510    0.02001731       3
Co    -3.70914042    0.03065404    0.14002634       4
Co    -0.05956827   -3.56479346    0.18903837       5
Cr     0.03269423    3.61845029    0.12752604       6
Ni     1.85281907   -1.70573325    0.03557996       7
Ni     1.68498091    1.67574777    0.03683971       8
Ni    -1.72135928   -1.65952650    2.78312763       9
Ni    -0.03041932    1.76618405    1.85381749      10
Co    -0.02760031   -1.66285432   -1.51486346      11
Cr    -0.05196860    1.76168630   -1.61333491      12
Ni    -1.88444132   -1.83437867    0.19109246      13
Co     1.81339235    0.06957529    1.91821120      14
Cr    -1.81996365    0.25936541    1.58212584      15
Cr    -1.80806826    0.00607506   -1.48400701      16
Co    -1.85907888    1.90031131    0.04179222      17
Cr     0.12965355   -1.28644048    1.41490190      18
          18
Lattice="  24.8920   0.0000   0.0000   0.0000  24.8920   0.0000   0.0000   0.0000  24.8920 " ConfE="      -5923.9034" DelE="          3.9054"
Ni    -0.04701926    0.01224366    3.67232866       1
Cr     0.11973871   -0.02218388   -3.29885776       2
Cr     3.51224370    0.03504947    0.08506364       3
Co    -3.70034141    0.00972079    0.15828668       4
Co    -0.03263609   -3.57745352    0.14491810       5
Cr     0.00571276    3.59359982    0.14875929       6
Ni     1.71164150   -1.70137650    0.11975113       7
Ni     1.69722106    1.70752921    0.09122344       8
Ni    -1.89651275   -1.66914563    3.44904376       9
Ni    -0.05202789    1.75568027    1.88134263      10
Co    -0.01503318   -1.64347560   -1.60129042      11
Cr    -0.05037324    1.71615270   -1.56636405      12
Ni    -1.81824328   -1.78381289    0.12523118      13
Co     1.71718410    0.00567930    1.90347124      14
Cr    -1.77364014    0.05306789    1.75236822      15
Cr    -1.85666835    0.02010698   -1.53263874      16
Co    -1.84022485    1.77725390    0.11876909      17
Cr     0.00656523   -1.63750334    1.78080366      18
