          18
Lattice="  24.8920   0.0000   0.0000   0.0000  24.8920   0.0000   0.0000   0.0000  24.8920 " ConfE="      -5935.7331" DelE="          0.0000"
Cr    -3.42629011   -0.02152839    0.02884932       1
Co    -0.00371037    0.03266630    3.40612178       2
Co     3.55480002    0.04941464   -0.13276574       3
Cr     0.05680565    0.00326161   -3.70183614       4
Ni     0.02102716   -3.49798734   -0.10424973       5
Co     0.03305815    3.55938804   -0.09730535       6
Co    -1.72655348   -1.64413383   -0.06903901       7
Cr    -1.72828833    1.73300648   -0.01206309       8
Co    -0.01394647   -1.63251910    1.64216235       9
Cr     0.01614265    1.73804746    1.70620663      10
Ni    -1.75057420    0.02127601   -1.89015330      11
Co     1.83391064    0.03937894    1.63498330      12
Cr     1.81962600    0.02329854   -1.88858241      13
Cr     0.05599421   -1.73229157   -1.88377825      14
Co     0.02736804    1.76364449   -1.85574676      15
Co     1.80835863   -1.71100741   -0.12262566      16
Cr     1.83118753    1.77542240   -0.11211716      17
Cr     0.00000000    0.00000000    0.00000000      18
          18
Lattice="  24.8920   0.0000   0.0000   0.0000  24.8920   0.0000   0.0000   0.0000  24.8920 " ConfE="      -5935.2736" DelE="          0.4596"
Cr    -3.49614470   -0.00107899   -0.00721185       1
Co     0.01254336    0.02249525    3.41637092       2
Co     3.56409129    0.05217587   -0.10894829       3
Cr     0.04636804   -0.04372282   -3.63634283       4
Ni     0.03735900   -3.57251947   -0.10331748       5
Co     0.05115675    3.64577146   -0.11420983       6
Co    -1.70547492   -1.75594634   -0.10551844       7
Cr    -1.69387206    1.93808484   -0.10702619       8
Co     0.04347202   -1.79576073    1.67525187       9
Cr     0.08572196    1.99844269    1.78787777      10
Ni    -1.73764818    0.03886526   -1.79032232      11
Co     1.73375433    0.05905803    1.59580446      12
Cr     1.79139507    0.02659332   -1.82756281      13
Cr     0.05818999   -1.66031874   -1.73307919      14
Co     0.03190750    1.75172576   -1.81357089      15
Co     1.75571147   -1.68331891   -0.11232158      16
Cr     1.65694362    1.69473654   -0.06037739      17
Cr    -0.88139458    0.07402425    0.94690488      18
          18
Lattice="  24.8920   0.0000   0.0000   0.0000  24.8920   0.0000   0.0000   0.0000  24.8920 " ConfE="      -5936.1275" DelE="         -0.3943"
Cr    -3.53138968   -0.00514958   -0.05939595       1
Co     0.02850904    0.02811928    3.47217216       2
Co     3.59174756    0.05017608   -0.12386668       3
Cr     0.06374199   -0.01576124   -3.68695931       4
Ni     0.02947061   -3.53006012   -0.11199620       5
Co     0.04122987    3.60188675   -0.10217730       6
Co    -1.69078889   -1.64929998   -0.09388463       7
Cr    -1.67266433    1.73949573   -0.07119445       8
Co     0.00153484   -1.61876604    1.61528344       9
Cr     0.06655257    1.70474600    1.61865798      10
Ni    -1.72622115    0.01921022   -1.85460823      11
Co     1.76260520    0.06318918    1.58133629      12
Cr     1.78657433    0.00435717   -1.83110898      13
Cr     0.06760691   -1.70898649   -1.84362902      14
Co     0.04852120    1.74075239   -1.82314755      15
Co     1.77343433   -1.67294578   -0.15229958      16
Cr     1.79204095    1.74670442   -0.12111759      17
Cr    -1.68408345   -0.00075609    1.62047028      18
