          18
Lattice="  24.8920   0.0000   0.0000   0.0000  24.8920   0.0000   0.0000   0.0000  24.8920 " ConfE="      -5945.0459" DelE="          0.0000"
Ni    -0.04537738   -3.43645117   -0.06064241       1
Co     0.04978145    0.03437789    3.43033843       2
Cr     0.00508013    3.63593411   -0.11066421       3
Ni    -0.01281547    0.05015007   -3.64871050       4
Co     3.48158417    0.06307230   -0.06671555       5
Co    -3.56742552    0.08093045   -0.07746156       6
Ni     1.72803544   -1.72209364   -0.06467503       7
Cr    -1.80499123   -1.66236770   -0.14056248       8
Cr     1.70826643    0.00343385    1.73332436       9
Ni    -1.74981312    0.02133265    1.70088613      10
Ni     0.01099744   -1.71294420   -1.87825265      11
Co    -0.02162952    1.84962946    1.67613255      12
Cr    -0.09061296    1.84688129   -1.84644585      13
Cr     1.78089943    0.09068118   -1.90293911      14
Co    -1.75394610    0.05658158   -1.81674329      15
Cr     1.72180080    1.81248741   -0.05716856      16
Co    -1.75236803    1.83271034   -0.08005567      17
Cr     0.00000000    0.00000000    0.00000000      18
          18
Lattice="  24.8920   0.0000   0.0000   0.0000  24.8920   0.0000   0.0000   0.0000  24.8920 " ConfE="      -5944.3011" DelE="          0.7448"
Ni    -0.03703776   -3.41194835   -0.05459664       1
Co     0.03142042    0.04323378    3.43407048       2
Cr    -0.00360339    3.61148210   -0.09130407       3
Ni    -0.02217204    0.03558405   -3.65515381       4
Co     3.55451722    0.07209743   -0.09875287       5
Co    -3.63516555    0.09770118   -0.08973975       6
Ni     1.83585796   -1.74268321   -0.11926646       7
Cr    -1.90998473   -1.64672322   -0.17424654       8
Cr     1.88331640    0.07207723    1.70951868       9
Ni    -1.92313184    0.12638526    1.72673343      10
Ni     0.00096551   -1.67803572   -1.80173102      11
Co    -0.01782633    1.74797993    1.63600231      12
Cr    -0.12603702    1.79761431   -1.80942050      13
Cr     1.71711167    0.07846709   -1.84089523      14
Co    -1.73016740    0.04875339   -1.76910079      15
Cr     1.62118245    1.70441292   -0.06041100      16
Co    -1.73913166    1.80065907   -0.08428788      17
Cr    -0.03511204   -0.90039324    0.97396853      18
          18
Lattice="  24.8920   0.0000   0.0000   0.0000  24.8920   0.0000   0.0000   0.0000  24.8920 " ConfE="      -5945.0026" DelE="          0.0432"
Ni    -0.03846307   -3.47035148   -0.07934291       1
Co     0.03167028    0.07095076    3.49574584       2
Cr    -0.00299733    3.63951769   -0.11524837       3
Ni    -0.01578259    0.04361927   -3.66182481       4
Co     3.53051834    0.07737619   -0.09003154       5
Co    -3.60519620    0.08632835   -0.08483007       6
Ni     1.72014060   -1.68509028   -0.09620588       7
Cr    -1.78553840   -1.63237450   -0.14907869       8
Cr     1.71402568    0.07476638    1.61269218       9
Ni    -1.77047612    0.06725498    1.66875427      10
Ni     0.00295732   -1.68806740   -1.83999660      11
Co     0.00023565    1.78106042    1.62809985      12
Cr    -0.12104697    1.79449368   -1.80482314      13
Cr     1.74018540    0.11095953   -1.85917396      14
Co    -1.73187700    0.05164138   -1.78661179      15
Cr     1.66576340    1.80022763   -0.08496054      16
Co    -1.73746748    1.81887122   -0.10022214      17
Cr    -0.02981493   -1.58095590    1.65700902      18
