          18
Lattice="  24.8920   0.0000   0.0000   0.0000  24.8920   0.0000   0.0000   0.0000  24.8920 " ConfE="      -5949.6556" DelE="          0.0000"
Ni    -3.45693903   -0.07792646   -0.01870432       1
Ni     0.01532511   -3.51091822    0.00139661       2
Ni     3.63711940   -0.01561185   -0.01511858       3
Ni     0.05029719    3.51698382   -0.04762223       4
Co     0.06741407    0.01752084   -3.54389351       5
Co     0.04663624   -0.01248553    3.55286443       6
Ni    -1.71214267   -0.04338843   -1.77322726       7
Cr    -1.72376296    0.01190084    1.77528039       8
Ni     0.04563313   -1.76874574   -1.78505172       9
Ni     0.02828264   -1.74442654    1.75005304      10
Ni    -1.72376868    1.77086819   -0.03268154      11
Ni     1.84155064   -1.78676157   -0.01190902      12
Ni     1.82260397    1.75036622   -0.03138903      13
Cr     0.04054007    1.66927238   -1.84961862      14
Co     0.04904209    1.74175813    1.77596837      15
Ni     1.81957279   -0.04516944   -1.79086859      16
Co     1.84144168    0.02515329    1.79085991      17
Co     0.00000000    0.00000000    0.00000000      18
          18
Lattice="  24.8920   0.0000   0.0000   0.0000  24.8920   0.0000   0.0000   0.0000  24.8920 " ConfE="      -5948.9993" DelE="          0.6563"
Ni    -3.43393779   -0.07571930   -0.02255777       1
Ni     0.00963102   -3.47069267    0.00968623       2
Ni     3.63767765   -0.02054807   -0.01614022       3
Ni     0.04637024    3.50882624   -0.04511180       4
Co     0.08043191    0.03668726   -3.60117974       5
Co     0.05194251   -0.00712238    3.61023111       6
Ni    -1.73729441    0.00875979   -1.93672724       7
Cr    -1.77674617    0.03969259    1.91917842       8
Ni     0.06009586   -1.77106686   -1.88053623       9
Ni     0.12165637   -1.78542996    1.91311024      10
Ni    -1.69946834    1.71216199   -0.05991733      11
Ni     1.78338272   -1.74641340    0.00125821      12
Ni     1.77195680    1.70372786   -0.02452940      13
Cr     0.03389801    1.66072441   -1.84741553      14
Co    -0.02085783    1.59865124    1.71675044      15
Ni     1.77546834   -0.04104634   -1.77792372      16
Co     1.84847946    0.01825926    1.81181185      17
Co    -0.85378368   -0.73047118    0.09126686      18
          18
Lattice="  24.8920   0.0000   0.0000   0.0000  24.8920   0.0000   0.0000   0.0000  24.8920 " ConfE="      -5949.9259" DelE="         -0.2703"
Ni    -3.49916127   -0.02044306   -0.01094352       1
Ni     0.05620928   -3.55304633    0.00640034       2
Ni     3.64784400   -0.01134499   -0.01592196       3
Ni     0.05339221    3.52746838   -0.04797892       4
Co     0.06961305    0.02209333   -3.55837261       5
Co     0.04834443   -0.01706063    3.58191291       6
Ni    -1.67548714   -0.01356313   -1.76093547       7
Cr    -1.72032979    0.05462512    1.79438155       8
Ni     0.05491061   -1.75547471   -1.77166927       9
Ni     0.06568694   -1.71091152    1.75619608      10
Ni    -1.67940154    1.73002155   -0.04071350      11
Ni     1.81477926   -1.75982208   -0.00665536      12
Ni     1.79365017    1.72959044   -0.03158987      13
Cr     0.04592344    1.69341531   -1.87055457      14
Co     0.01882921    1.66604769    1.74085758      15
Ni     1.79104473   -0.03414197   -1.77326220      16
Co     1.84237806    0.03140577    1.79281883      17
Co    -1.70334497   -1.74285585    0.05280718      18
