          18
Lattice="  24.8920   0.0000   0.0000   0.0000  24.8920   0.0000   0.0000   0.0000  24.8920 " ConfE="      -5938.1236" DelE="          0.0000"
Ni    -0.04391172    3.51396065   -0.00663777       1
Ni     0.00127772   -3.54756903    0.00993402       2
Co    -0.02366282   -0.00774257   -3.54954184       3
Cr    -0.06354918    0.00592428    3.59701787       4
Co    -3.61450603    0.01139016   -0.01339757       5
Cr     3.53642504    0.04935097    0.02828524       6
Ni    -1.75938314    1.76042595   -0.06178622       7
Ni     1.73107752    1.77124839    0.00456092       8
Ni    -1.76215298    0.02929404   -1.78802731       9
Ni     1.72437331    0.02071986   -1.75217882      10
Ni    -0.02551111    1.76565621    1.81208097      11
Ni    -1.78010408   -0.00254501    1.78550733      12
Ni     1.74478843    0.00673435    1.78513872      13
Ni    -0.01250384   -1.76888949    1.79278952      14
Ni    -1.79451051   -1.76072359   -0.00215474      15
Ni    -0.01732028   -1.77010480   -1.78405470      16
Co     1.80275639   -1.80270935    0.01906639      17
Ni     0.00000000    0.00000000    0.00000000      18
          18
Lattice="  24.8920   0.0000   0.0000   0.0000  24.8920   0.0000   0.0000   0.0000  24.8920 " ConfE="      -5937.4386" DelE="          0.6850"
Ni    -0.03936480    3.46907048   -0.01558004       1
Ni     0.00351694   -3.53775735   -0.00221941       2
Co    -0.02493757    0.00613008   -3.51763650       3
Cr    -0.06536128    0.00970785    3.60626663       4
Co    -3.66446170    0.00845196    0.00252432       5
Cr     3.61786682    0.02923740    0.05224844       6
Ni    -1.90360992    1.80088203   -0.00126986       7
Ni     1.85794878    1.78384382    0.03606108       8
Ni    -1.93345563   -0.03819666   -1.82209759       9
Ni     1.89010873   -0.04518021   -1.78921070      10
Ni    -0.01332395    1.72217167    1.74550498      11
Ni    -1.77329224    0.00428376    1.76410346      12
Ni     1.74545658    0.00711903    1.75303424      13
Ni    -0.00494551   -1.72682422    1.75772372      14
Ni    -1.77460809   -1.71821220   -0.01146595      15
Ni    -0.01598125   -1.71860982   -1.76416808      16
Co     1.80539818   -1.77509096    0.01145563      17
Ni    -0.03653413    0.63961756   -0.71390228      18
          18
Lattice="  24.8920   0.0000   0.0000   0.0000  24.8920   0.0000   0.0000   0.0000  24.8920 " ConfE="      -5938.5509" DelE="         -0.4272"
Ni    -0.03718713    3.53428519    0.02705969       1
Ni     0.00057864   -3.55770182    0.00849503       2
Co    -0.02247635   -0.04627333   -3.58398075       3
Cr    -0.06425626    0.00205884    3.61263049       4
Co    -3.64367909    0.00728844   -0.00357466       5
Cr     3.58466471    0.03726344    0.04332165       6
Ni    -1.77547416    1.72538432   -0.01137414       7
Ni     1.72996225    1.73091434    0.02364059       8
Ni    -1.78537602   -0.00874433   -1.76687204       9
Ni     1.72830702   -0.01726859   -1.71555185      10
Ni    -0.01927620    1.73225854    1.78090988      11
Ni    -1.76098010   -0.01210540    1.77689392      12
Ni     1.72560779   -0.00499132    1.75826507      13
Ni    -0.00759347   -1.74907494    1.77135873      14
Ni    -1.77300031   -1.74138604    0.00197651      15
Ni    -0.01914945   -1.74060492   -1.75857199      16
Co     1.79910792   -1.80111559    0.02814786      17
Ni    -0.04084553    1.73819870   -1.76123127      18
