          18
Lattice="  24.8920   0.0000   0.0000   0.0000  24.8920   0.0000   0.0000   0.0000  24.8920 " ConfE="      -5923.6172" DelE="          0.0000"
Ni     0.04889555   -0.04762897   -3.55257623       1
Co    -3.51603970   -0.06593149    0.06323441       2
Ni     0.01627592   -3.60811723   -0.00547187       3
Co    -0.03238456    3.42935266   -0.02238632       4
Cr     3.57072970   -0.02232600    0.03298673       5
Cr     0.08984348    0.00856138    3.54767338       6
Ni    -1.71727736   -0.00081389   -1.72601628       7
Ni    -1.74152105   -0.02365090    1.76340363       8
Ni     0.01641411    1.73035224    1.75604852       9
Cr     0.06761318    1.70562190   -1.78415067      10
Ni     1.76042200   -1.80791593    0.00372140      11
Co     0.04062525   -1.82386238   -1.78952332      12
Co    -1.76611189   -1.88562567    0.03318423      13
Co     1.81713166   -0.03235963   -1.74967710      14
Co     1.83009487    1.69807957    0.00557269      15
Co    -0.00096529   -1.80966279    1.79927541      16
Cr     1.79421318   -0.04362061    1.78687380      17
Ni     0.00000000    0.00000000    0.00000000      18
          18
Lattice="  24.8920   0.0000   0.0000   0.0000  24.8920   0.0000   0.0000   0.0000  24.8920 " ConfE="      -5923.1253" DelE="          0.4919"
Ni     0.05089127   -0.08278801   -3.62400625       1
Co    -3.48483788   -0.05682421    0.05480208       2
Ni     0.01125736   -3.59601427   -0.00821381       3
Co    -0.02326520    3.43255002   -0.00386699       4
Cr     3.57685675   -0.01377580    0.03129068       5
Cr     0.11916441   -0.01000758    3.63200603       6
Ni    -1.76632803   -0.12375173   -1.91095309       7
Ni    -1.76085120   -0.06475122    1.89378505       8
Ni     0.06588534    1.73711596    1.92017204       9
Cr     0.13532363    1.69013046   -1.96077061      10
Ni     1.70846859   -1.74439018    0.00259488      11
Co     0.03620203   -1.79951819   -1.80262320      12
Co    -1.73128920   -1.82237380    0.02454026      13
Co     1.74943045   -0.00754294   -1.74048474      14
Co     1.74897932    1.65309082    0.03402357      15
Co     0.00367259   -1.75623316    1.79435461      16
Cr     1.74377344   -0.02165429    1.75803169      17
Ni    -0.88019107    0.94054064   -0.06646177      18
          18
Lattice="  24.8920   0.0000   0.0000   0.0000  24.8920   0.0000   0.0000   0.0000  24.8920 " ConfE="      -5923.6074" DelE="          0.0098"
Ni     0.04931334   -0.05485254   -3.57935682       1
Co    -3.53544162   -0.07691859    0.04663121       2
Ni     0.01826876   -3.61903576   -0.00736386       3
Co     0.01198513    3.51503598   -0.01030814       4
Cr     3.58253209   -0.02641952    0.03630004       5
Cr     0.10447620    0.00020502    3.58318260       6
Ni    -1.66644470   -0.05462098   -1.72117604       7
Ni    -1.71811787   -0.05104186    1.76127962       8
Ni     0.04194777    1.69382252    1.75835147       9
Cr     0.10876890    1.64130504   -1.75068138      10
Ni     1.72804575   -1.76979664    0.00668914      11
Co     0.04463081   -1.82055465   -1.78398079      12
Co    -1.75188878   -1.86987041    0.03673450      13
Co     1.76429560   -0.02795132   -1.72895068      14
Co     1.74329172    1.65556336   -0.00938389      15
Co     0.00839227   -1.77709020    1.78015928      16
Cr     1.77429225   -0.05158960    1.77045116      17
Ni    -1.69193331    1.69481324   -0.01095768      18
