          18
Lattice="  24.8920   0.0000   0.0000   0.0000  24.8920   0.0000   0.0000   0.0000  24.8920 " ConfE="      -5923.4501" DelE="          0.0000"
Co    -0.00780582   -0.01222216   -3.50977242       1
Ni     0.00049094   -3.45658037   -0.01222867       2
Co    -0.03117249    0.03232286    3.58710573       3
Co    -0.02584381    3.57418371    0.00665473       4
Cr    -3.62327492    0.00454859    0.07029759       5
Ni     3.54065006    0.02167353    0.03079678       6
Ni    -1.79995774    0.02278674   -1.76259526       7
Ni     1.73535467   -0.01367330   -1.74256978       8
Ni    -1.77249631   -1.74750808    0.00637835       9
Cr     1.77708023   -1.75351173   -0.01220141      10
Cr     0.01847410    1.78994585   -1.69116377      11
Co    -0.01828139   -1.70590450    1.78935790      12
Cr     0.02899092    1.71096023    1.72553646      13
Ni    -1.81848547    1.79455058    0.01777044      14
Co     1.75029137    1.80088610    0.01989259      15
Ni    -1.78874850    0.02329750    1.79405356      16
Co     1.73082578    0.02888791    1.75787689      17
Co     0.00000000    0.00000000    0.00000000      18
          18
Lattice="  24.8920   0.0000   0.0000   0.0000  24.8920   0.0000   0.0000   0.0000  24.8920 " ConfE="      -5922.8515" DelE="          0.5986"
Co     0.00413823   -0.00542263   -3.44442078       1
Ni    -0.02151796   -3.46440666   -0.00421635       2
Co    -0.03670853    0.02231724    3.57030878       3
Co    -0.01685676    3.57792918   -0.00820412       4
Cr    -3.69963866    0.02284028    0.09047471       5
Ni     3.59246491    0.04097851    0.04392421       6
Ni    -1.90767769    0.03580963   -1.76130852       7
Ni     1.93637036    0.09072597   -1.77822354       8
Ni    -1.90234978   -1.76566162    0.06529241       9
Cr     1.91027402   -1.76859114    0.03078961      10
Cr     0.04020236    1.66210177   -1.61040300      11
Co    -0.01533905   -1.67088118    1.68512619      12
Cr     0.03652406    1.66847364    1.67066821      13
Ni    -1.79228112    1.74776822    0.01196091      14
Co     1.73279534    1.78359134    0.01346621      15
Ni    -1.77921632    0.01630683    1.76362670      16
Co     1.68869500    0.02952221    1.68777689      17
Co     0.10181483   -1.06151148   -0.98811723      18
          18
Lattice="  24.8920   0.0000   0.0000   0.0000  24.8920   0.0000   0.0000   0.0000  24.8920 " ConfE="      -5923.3641" DelE="          0.0860"
Co    -0.01549526    0.04038752   -3.54124123       1
Ni    -0.01054152   -3.52786361    0.01218393       2
Co    -0.03451082    0.03089272    3.59874212       3
Co    -0.02718170    3.60369351    0.00207015       4
Cr    -3.64166351    0.01153923    0.07316163       5
Ni     3.55037501    0.02678218    0.04003756       6
Ni    -1.78360426    0.04126243   -1.74306429       7
Ni     1.72915755    0.05503603   -1.68860157       8
Ni    -1.75155529   -1.72749551    0.01016295       9
Cr     1.75320337   -1.75251179   -0.01312016      10
Cr     0.01708262    1.77850118   -1.66414972      11
Co     0.00520040   -1.68229676    1.71554457      12
Cr     0.04136710    1.69313811    1.69409514      13
Ni    -1.78983425    1.77882049    0.02015525      14
Co     1.69829460    1.79762038    0.03574225      15
Ni    -1.75634471    0.02574595    1.76979152      16
Co     1.67548797    0.03704686    1.70674925      17
Co     0.06142028   -1.70583384   -1.75362402      18
