          18
Lattice="  24.8920   0.0000   0.0000   0.0000  24.8920   0.0000   0.0000   0.0000  24.8920 " ConfE="      -5943.4241" DelE="          0.0000"
Co    -0.01334289   -3.50839724   -0.06628708       1
Ni    -3.53098525   -0.00467798   -0.02278631       2
Ni     0.02680294    3.58898657   -0.06034821       3
Ni     3.57662672    0.03642312   -0.02726938       4
Cr     0.02548356   -0.01304694    3.45588829       5
Cr     0.02695044   -0.00441468   -3.60042765       6
Co    -0.05844074   -1.74236100    1.62819530       7
Co    -0.00792781   -1.70695446   -1.76870335       8
Cr    -1.72844248   -0.06009836    1.67825952       9
Cr    -1.77668420   -0.15274838   -1.69448665      10
Cr     1.77082010   -1.74227276    0.00797219      11
Cr    -1.73308812    1.83414036   -0.02452039      12
Ni     1.79426021    1.80531021   -0.04110787      13
Co     1.74293824    0.03152181    1.72171547      14
Ni     1.79738728    0.02043400   -1.80339406      15
Co    -0.00284918    1.81973078    1.72938656      16
Cr    -0.02354080    1.74032663   -1.83489593      17
Cr     0.00000000    0.00000000    0.00000000      18
          18
Lattice="  24.8920   0.0000   0.0000   0.0000  24.8920   0.0000   0.0000   0.0000  24.8920 " ConfE="      -5942.8255" DelE="          0.5986"
Co    -0.01307194   -3.42008118   -0.07060790       1
Ni    -3.42749768   -0.00517057   -0.03383117       2
Ni     0.01678146    3.58756572   -0.07237634       3
Ni     3.58985293    0.03530921   -0.02540322       4
Cr     0.03719062    0.01849386    3.56180146       5
Cr     0.06543525   -0.00517968   -3.67013581       6
Co    -0.00503972   -1.80164534    1.80072760       7
Co     0.03528734   -1.71911947   -1.89873021       8
Cr    -1.73869487    0.05048603    1.87953725       9
Cr    -1.81632242   -0.08342156   -1.96563284      10
Cr     1.73201565   -1.69397489    0.02368710      11
Cr    -1.71480378    1.82658390   -0.03898937      12
Ni     1.74947441    1.76011825   -0.05142903      13
Co     1.66114413   -0.02041121    1.66884704      14
Ni     1.76584249    0.00753586   -1.79066217      15
Co    -0.05079646    1.71129510    1.64934915      16
Cr    -0.05112110    1.63445569   -1.78371675      17
Cr    -0.65075755   -0.66597212   -0.00288252      18
          18
Lattice="  24.8920   0.0000   0.0000   0.0000  24.8920   0.0000   0.0000   0.0000  24.8920 " ConfE="      -5943.5250" DelE="         -0.1009"
Co     0.01884505   -3.57815123   -0.05497915       1
Ni    -3.52988780    0.02742598   -0.04359330       2
Ni     0.03677523    3.61407478   -0.06079932       3
Ni     3.56489654    0.03745026   -0.02742721       4
Cr     0.03363764    0.01131655    3.51112447       5
Cr     0.05411831   -0.01048812   -3.62695211       6
Co    -0.01262843   -1.73285731    1.64191985       7
Co     0.02286182   -1.68552928   -1.76135594       8
Cr    -1.63327970    0.03187558    1.66914621       9
Cr    -1.70315671    0.03282508   -1.76458748      10
Cr     1.66530882   -1.68155989    0.02066638      11
Cr    -1.64968690    1.78196746   -0.03340404      12
Ni     1.76713187    1.78882733   -0.04191591      13
Co     1.70659024    0.01785936    1.69690130      14
Ni     1.76660550    0.03693862   -1.79144314      15
Co    -0.00163403    1.79635662    1.70363113      16
Cr     0.00618010    1.76412176   -1.83593828      17
Cr    -1.63213615   -1.74112413   -0.07253588      18
