          18
Lattice="  24.8920   0.0000   0.0000   0.0000  24.8920   0.0000   0.0000   0.0000  24.8920 " ConfE="      -5947.8405" DelE="          0.0000"
Co    -3.48984501   -0.07548330   -0.06332633       1
Co    -0.01455385   -0.00026497   -3.62726123       2
Cr     3.56412554   -0.03100350   -0.08231171       3
Co     0.04700712    0.01265697    3.55312505       4
Co    -0.00556724   -3.59786966   -0.02017260       5
Cr    -0.00603947    3.47419346   -0.02875594       6
Cr    -1.71103478   -1.62139952   -0.04894740       7
Cr    -1.81847100    1.63637499   -0.04816558       8
Ni     0.00457838   -1.73019490   -1.80569373       9
Ni    -0.02874453    1.67511206   -1.80094868      10
Cr    -1.75687377   -0.01710555    1.80091355      11
Co     1.83891028    0.00516045   -1.81391470      12
Cr     1.82951641   -0.00179934    1.79361160      13
Ni     0.05464552   -1.78211115    1.76934109      14
Co     0.03093957    1.74040095    1.76230804      15
Ni     1.78214278   -1.78735930   -0.02439607      16
Ni     1.79414740    1.73536497   -0.01708241      17
Co     0.00000000    0.00000000    0.00000000      18
          18
Lattice="  24.8920   0.0000   0.0000   0.0000  24.8920   0.0000   0.0000   0.0000  24.8920 " ConfE="      -5947.2216" DelE="          0.6189"
Co    -3.45647726   -0.07094769   -0.05190214       1
Co    -0.02320076    0.00645234   -3.59196535       2
Cr     3.56893598   -0.02328092   -0.09230685       3
Co     0.03552344    0.00908806    3.54807117       4
Co     0.00669179   -3.65160800   -0.01573678       5
Cr     0.00433651    3.55577878   -0.01288688       6
Cr    -1.80362826   -1.92137018    0.00157140       7
Cr    -1.87783730    1.88860104   -0.03117089       8
Ni     0.04241433   -1.84846748   -1.83224311       9
Ni     0.03130733    1.81861413   -1.82304075      10
Cr    -1.72211095   -0.01121717    1.73970495      11
Co     1.76038589   -0.00216428   -1.78751587      12
Cr     1.74485743   -0.00693583    1.74942716      13
Ni     0.01619596   -1.76759757    1.71548201      14
Co    -0.01306236    1.68312878    1.69152606      15
Ni     1.74448979   -1.76861527   -0.03044430      16
Ni     1.75315927    1.71255435   -0.02371290      17
Co    -0.91307715   -0.00842619   -0.70265845      18
          18
Lattice="  24.8920   0.0000   0.0000   0.0000  24.8920   0.0000   0.0000   0.0000  24.8920 " ConfE="      -5947.8834" DelE="         -0.0429"
Co    -3.57053387   -0.05851256   -0.01027466       1
Co     0.00422301   -0.00553125   -3.63542481       2
Cr     3.60368475   -0.02154957   -0.08085326       3
Co     0.04956310    0.01291708    3.57137891       4
Co     0.00614482   -3.61006979   -0.01370193       5
Cr     0.01164239    3.50590931   -0.01877529       6
Cr    -1.68130188   -1.62593289   -0.01037996       7
Cr    -1.77986107    1.65351309   -0.00288047       8
Ni     0.04241114   -1.74150227   -1.78808762       9
Ni     0.01972502    1.68044411   -1.76166330      10
Cr    -1.73540757   -0.01113611    1.74896516      11
Co     1.83860933    0.00260531   -1.81005560      12
Cr     1.82741333   -0.00823643    1.80247866      13
Ni     0.05505272   -1.74103802    1.74157980      14
Co     0.02424795    1.67340941    1.72505930      15
Ni     1.76927613   -1.74088334   -0.01753343      16
Ni     1.76957748    1.68341594   -0.00405526      17
Co    -1.74392368   -0.02437737   -1.72927828      18
