          18
Lattice="  24.8920   0.0000   0.0000   0.0000  24.8920   0.0000   0.0000   0.0000  24.8920 " ConfE="      -5948.8518" DelE="          0.0000"
Cr    -3.50395535    0.03365948   -0.09008789       1
Ni     0.07095687    0.06690034    3.48699867       2
Co     3.65387430    0.05605021   -0.08762440       3
Ni     0.08222336    0.08196990   -3.64542770       4
Ni     0.08584885   -3.44690777   -0.04309948       5
Ni     0.06751833    3.56120993   -0.04674541       6
Cr    -1.71790434   -1.59607012    0.02534629       7
Ni    -1.70615111    1.77142796   -0.03738169       8
Co     0.04913416   -1.69053953    1.71907593       9
Co     0.08555002    1.79437007    1.70880482      10
Ni    -1.70447152    0.06248328   -1.86717754      11
Co     1.91027250    0.03295612    1.68697500      12
Ni     1.84590562    0.06252172   -1.83329988      13
Co     0.07182283   -1.70616769   -1.79698315      14
Ni     0.07460932    1.81932288   -1.84852754      15
Cr     1.86783172   -1.68594466   -0.03662518      16
Cr     1.77294308    1.68431567    0.04843246      17
Co     0.00000000    0.00000000    0.00000000      18
          18
Lattice="  24.8920   0.0000   0.0000   0.0000  24.8920   0.0000   0.0000   0.0000  24.8920 " ConfE="      -5948.1794" DelE="          0.6724"
Cr    -3.45328561    0.01378098   -0.05353393       1
Ni     0.06727373    0.05708063    3.46327230       2
Co     3.64724874    0.05979328   -0.07097496       3
Ni     0.07221396    0.08119280   -3.63994137       4
Ni     0.10720867   -3.49506688   -0.05440442       5
Ni     0.07539008    3.60412205   -0.05750440       6
Cr    -1.75252920   -1.84545874   -0.05772040       7
Ni    -1.74432737    1.90550615   -0.09777731       8
Co     0.14237382   -1.88955218    1.80014634       9
Co     0.10081539    1.86967259    1.69815072      10
Ni    -1.68337056    0.04515168   -1.79354629      11
Co     1.80493315   -0.00929528    1.64573783      12
Ni     1.82083558    0.06242141   -1.79887833      13
Co     0.07916137   -1.69455209   -1.74472273      14
Ni     0.06870987    1.81039315   -1.82078067      15
Cr     1.81805506   -1.67020832   -0.03460796      16
Cr     1.73063629    1.65489052    0.06303837      17
Co    -0.89758957   -0.07918854    0.83860893      18
          18
Lattice="  24.8920   0.0000   0.0000   0.0000  24.8920   0.0000   0.0000   0.0000  24.8920 " ConfE="      -5948.7437" DelE="          0.1081"
Cr    -3.54906115    0.04379548   -0.10469791       1
Ni     0.08408145    0.06121471    3.50499387       2
Co     3.67883045    0.05588914   -0.08889803       3
Ni     0.08426117    0.08506320   -3.65377771       4
Ni     0.08891970   -3.46868354   -0.04549823       5
Ni     0.07645082    3.58151139   -0.05242494       6
Cr    -1.69044290   -1.60484997   -0.00146593       7
Ni    -1.67356804    1.77405621   -0.06533259       8
Co     0.08928877   -1.65598282    1.65301631       9
Co     0.10774467    1.77081404    1.66610494      10
Ni    -1.67912094    0.05836631   -1.82417495      11
Co     1.89040228    0.03275523    1.65178812      12
Ni     1.84561453    0.06780620   -1.81413458      13
Co     0.08359928   -1.67257660   -1.74110992      14
Ni     0.08730030    1.81365757   -1.84007342      15
Cr     1.84564881   -1.66904909   -0.04435767      16
Cr     1.77546211    1.66872059    0.04131747      17
Co    -1.70626588   -0.00726720    1.62812040      18
