          18
Lattice="  24.8920   0.0000   0.0000   0.0000  24.8920   0.0000   0.0000   0.0000  24.8920 " ConfE="      -5938.2725" DelE="          0.0000"
Ni    -3.46922830   -0.00494327    0.01076101       1
Cr     0.06810581   -0.06820480   -3.51286452       2
Cr     3.57347632    0.04385775   -0.00534178       3
Ni     0.03330480    0.00308250    3.63437292       4
Cr     0.06189755   -3.50154682    0.01529950       5
Cr     0.01080052    3.55928677    0.04294028       6
Ni    -1.71981809   -1.74547889    0.01249440       7
Ni    -1.72322730    1.73871070    0.01990453       8
Co     0.05167044   -1.76672537   -1.76744406       9
Ni     0.01980511    1.71488488   -1.76213793      10
Cr    -1.77766146    0.00852047    1.86141533      11
Ni     1.82700636    0.00621595   -1.75419725      12
Ni     1.80117437    0.01404455    1.81554833      13
Ni     0.05550229   -1.74003466    1.82215584      14
Ni     0.03116120    1.77719468    1.80462187      15
Ni     1.81612729   -1.75059705    0.04108316      16
Co     1.80201641    1.81071815    0.02898013      17
Ni     0.00000000    0.00000000    0.00000000      18
          18
Lattice="  24.8920   0.0000   0.0000   0.0000  24.8920   0.0000   0.0000   0.0000  24.8920 " ConfE="      -5937.5776" DelE="          0.6949"
Ni    -3.42178250   -0.01033935   -0.02680304       1
Cr     0.05095275   -0.05199538   -3.49187880       2
Cr     3.56736385    0.04235584   -0.02272545       3
Ni     0.01729817    0.00618591    3.62381088       4
Cr     0.07082647   -3.58291558    0.04900421       5
Cr     0.01781275    3.65100274    0.06427945       6
Ni    -1.74555351   -1.90117680    0.06716885       7
Ni    -1.72761714    1.85205315    0.04797725       8
Co     0.14966292   -2.00344482   -1.77517618       9
Ni     0.08191858    1.90341710   -1.76415829      10
Cr    -1.75306034    0.00465081    1.77317943      11
Ni     1.71714413   -0.00492385   -1.72069573      12
Ni     1.77130410    0.02101720    1.78040282      13
Ni     0.03444539   -1.71691914    1.78035174      14
Ni     0.01567328    1.75982085    1.75770373      15
Ni     1.78435150   -1.74402266    0.04364953      16
Co     1.78474926    1.81513196    0.01864510      17
Ni    -0.95396303   -0.06220144   -1.09696300      18
          18
Lattice="  24.8920   0.0000   0.0000   0.0000  24.8920   0.0000   0.0000   0.0000  24.8920 " ConfE="      -5938.2748" DelE="         -0.0023"
Ni    -3.49200876   -0.00792300    0.03112415       1
Cr     0.09190977   -0.05966438   -3.56082752       2
Cr     3.58408481    0.04454988   -0.00697402       3
Ni     0.03801323    0.00416422    3.64965013       4
Cr     0.07257468   -3.54481725    0.03800987       5
Cr     0.01862450    3.59973750    0.05915881       6
Ni    -1.68163829   -1.73799237    0.04893431       7
Ni    -1.67348635    1.71263786    0.04593531       8
Co     0.08834061   -1.80728655   -1.72984479       9
Ni     0.05499264    1.73088291   -1.72985094      10
Cr    -1.77029093    0.00714123    1.85437739      11
Ni     1.79123074   -0.00204284   -1.73499026      12
Ni     1.79336452    0.01920751    1.80204032      13
Ni     0.05625440   -1.71186780    1.80744871      14
Ni     0.03786185    1.75614639    1.78852967      15
Ni     1.79706649   -1.73101957    0.05195753      16
Co     1.79528635    1.80172774    0.03305508      17
Ni    -1.66293862   -0.03022783   -1.73650252      18
