          18
Lattice="  24.8920   0.0000   0.0000   0.0000  24.8920   0.0000   0.0000   0.0000  24.8920 " ConfE="      -5938.8124" DelE="          0.0000"
Cr     3.48864231   -0.00870654   -0.07054032       1
Co    -0.07522776    3.54195027   -0.08120158       2
Ni    -0.03211069   -0.03124652    3.53112199       3
Cr    -0.01356717   -0.00613941   -3.56297906       4
Cr    -3.53560715   -0.07393151   -0.01103756       5
Co    -0.00015019   -3.63536919   -0.02573450       6
Ni     1.74553644    0.00419715    1.74198391       7
Ni    -0.01502621    1.74682508    1.73527409       8
Ni     1.72578262    0.00778978   -1.75762154       9
Co    -0.03958646    1.76128320   -1.77546249      10
Ni    -1.77739414   -0.06221786   -1.79012813      11
Ni    -1.76537552   -1.82082177   -0.00878374      12
Cr     1.75303846   -1.84789537    0.01771875      13
Co    -1.86288936    1.72283918   -0.04467220      14
Co     0.00478107   -1.80515174    1.71974559      15
Co    -1.82695288   -0.04613091    1.75537759      16
Cr     0.00544383   -1.83292753   -1.75247500      17
Ni     0.00000000    0.00000000    0.00000000      18
          18
Lattice="  24.8920   0.0000   0.0000   0.0000  24.8920   0.0000   0.0000   0.0000  24.8920 " ConfE="      -5938.1073" DelE="          0.7051"
Cr     3.43192135    0.00005408   -0.07560043       1
Co    -0.05754401    3.51025114   -0.07389057       2
Ni    -0.05229167   -0.04334123    3.60196713       3
Cr    -0.04524838   -0.06681521   -3.66476732       4
Cr    -3.52757735   -0.06199963   -0.00607953       5
Co     0.00810382   -3.63875300   -0.02279978       6
Ni     1.76654995   -0.02658192    1.93219151       7
Ni    -0.06322877    1.74159681    1.86444476       8
Ni     1.76090178   -0.09600584   -1.98525312       9
Co    -0.09582377    1.77870327   -1.94175685      10
Ni    -1.73605137   -0.06236744   -1.78037228      11
Ni    -1.72153442   -1.78326508   -0.01081199      12
Cr     1.65878956   -1.70132980    0.03031618      13
Co    -1.78448636    1.69146769   -0.03526950      14
Co     0.02279713   -1.73831675    1.68209751      15
Co    -1.80617782   -0.03685969    1.73629466      16
Cr     0.00413422   -1.79706224   -1.73845328      17
Ni     0.98674498    0.89848105   -0.05317281      18
          18
Lattice="  24.8920   0.0000   0.0000   0.0000  24.8920   0.0000   0.0000   0.0000  24.8920 " ConfE="      -5938.7206" DelE="          0.0919"
Cr     3.51892353   -0.01747937   -0.06991055       1
Co    -0.09632294    3.58008174   -0.07232654       2
Ni    -0.03900475   -0.03317325    3.53866483       3
Cr    -0.02893192   -0.03898038   -3.61679978       4
Cr    -3.52866786   -0.07272887    0.00249678       5
Co    -0.00270681   -3.66331529   -0.02413936       6
Ni     1.71774802   -0.00241054    1.73642617       7
Ni    -0.04778335    1.72272901    1.73666994       8
Ni     1.66470538   -0.03059321   -1.74693555       9
Co    -0.07597718    1.73739968   -1.78632834      10
Ni    -1.74468703   -0.08179849   -1.76733433      11
Ni    -1.74406870   -1.80955229   -0.01520669      12
Cr     1.69685568   -1.78855943    0.02596617      13
Co    -1.81353440    1.69371138   -0.04310332      14
Co     0.01733296   -1.75432321    1.65066231      15
Co    -1.82117435   -0.04671191    1.72302543      16
Cr    -0.00276813   -1.83522231   -1.72570666      17
Ni     1.67590193    1.74172622   -0.02712108      18
