          18
Lattice="  24.8920   0.0000   0.0000   0.0000  24.8920   0.0000   0.0000   0.0000  24.8920 " ConfE="      -5941.0247" DelE="          0.0000"
Ni    -3.48420969   -0.02686148    0.05468709       1
Ni     0.05312111    0.00147659   -3.42328939       2
Ni     0.04593899   -0.03655045    3.64824942       3
Cr     3.56633251   -0.00252020    0.08615590       4
Co     0.04499649   -3.59366488    0.05356595       5
Cr     0.06657616    3.58666066    0.07638326       6
Ni    -1.74071922   -0.02586005    1.84681358       7
Cr    -1.71537459   -1.78451771    0.03204095       8
Co    -1.70461920    1.76262902   -0.00586343       9
Cr     0.03246858   -1.75442987   -1.63651478      10
Cr     0.02760947    1.74162647   -1.67550756      11
Cr     0.03410161   -1.81095248    1.80473728      12
Cr     0.02732324    1.76443446    1.80007961      13
Cr     1.76852506   -0.01317732    1.81494928      14
Co     1.84767289   -0.00427086   -1.67992706      15
Co     1.81459246   -1.80097159    0.08016879      16
Co     1.84126684    1.77702572    0.05985616      17
Co     0.00000000    0.00000000    0.00000000      18
          18
Lattice="  24.8920   0.0000   0.0000   0.0000  24.8920   0.0000   0.0000   0.0000  24.8920 " ConfE="      -5940.3658" DelE="          0.6589"
Ni    -3.49190336   -0.03484289    0.05134547       1
Ni     0.06312076   -0.00607134   -3.38368744       2
Ni     0.03847382   -0.02235974    3.62607415       3
Cr     3.59789856   -0.00708344    0.05657488       4
Co     0.06156287   -3.64165345    0.07022022       5
Cr     0.09469468    3.67282641    0.11933797       6
Ni    -1.74734540   -0.03302438    1.78376036       7
Cr    -1.76493244   -1.91277079    0.07920981       8
Co    -1.74739618    1.90517652    0.07134439       9
Cr     0.16295406   -1.93066852   -1.64142181      10
Cr     0.10223504    1.88317523   -1.60753732      11
Cr     0.04161092   -1.72880574    1.70912315      12
Cr     0.02882550    1.61911163    1.58520220      13
Cr     1.75974113   -0.01817959    1.74514150      14
Co     1.76533048    0.00220856   -1.61013058      15
Co     1.81133868   -1.80473476    0.08447948      16
Co     1.85885059    1.79627374    0.05942433      17
Co    -0.84660270   -0.05255153   -0.89712692      18
          18
Lattice="  24.8920   0.0000   0.0000   0.0000  24.8920   0.0000   0.0000   0.0000  24.8920 " ConfE="      -5940.8942" DelE="          0.1305"
Ni    -3.54869464   -0.02373153    0.07819853       1
Ni     0.07763128    0.00463586   -3.45404509       2
Ni     0.04434076   -0.02803080    3.63409121       3
Cr     3.63455921   -0.00617969    0.09814542       4
Co     0.05370942   -3.59901412    0.06125463       5
Cr     0.07312531    3.60330119    0.08976580       6
Ni    -1.74658112   -0.03329744    1.80278283       7
Cr    -1.73613689   -1.80462398    0.07628026       8
Co    -1.69660331    1.77223832    0.05423884       9
Cr     0.06447007   -1.60348670   -1.47234105      10
Cr     0.07831699    1.65324053   -1.54313420      11
Cr     0.05954299   -1.71930262    1.71867881      12
Cr     0.05066340    1.62161869    1.62956208      13
Cr     1.79883822   -0.01649877    1.79812347      14
Co     1.81127895    0.00375103   -1.63582776      15
Co     1.82483514   -1.78045835    0.09324455      16
Co     1.86724956    1.76294533    0.07630120      17
Co    -1.68193154    0.00216050   -1.62429793      18
