          18
Lattice="  24.8920   0.0000   0.0000   0.0000  24.8920   0.0000   0.0000   0.0000  24.8920 " ConfE="      -5936.1275" DelE="          0.0000"
Ni    -0.05319637    0.00396922   -3.59159934       1
Cr     3.51279548   -0.01485305    0.02349924       2
Cr     0.04213770   -0.01996632    3.47507850       3
Cr    -3.59144652   -0.03629740    0.00850390       4
Co    -0.00156468   -3.51547345   -0.01931664       5
Cr    -0.00487727    3.53155744    0.01316049       6
Ni    -1.81222701   -0.02137777   -1.81327781       7
Ni    -0.01701860    1.77059210   -1.79976875       8
Cr     0.05355682    1.72028551    1.78341377       9
Co     0.03543226   -1.66851021    1.76072359      10
Cr     1.79382806   -1.72819671    0.01097921      11
Co     1.77474235    1.72154216    0.03146068      12
Ni    -1.78183928   -1.75082664   -0.01489680      13
Ni    -1.80250547    1.75890446   -0.03199802      14
Cr     1.78996315   -0.03497146   -1.83235108      15
Co     0.01169791   -1.77350049   -1.80936918      16
Cr    -1.80516853   -0.02435980    1.79521227      17
Ni     0.00000000    0.00000000    0.00000000      18
          18
Lattice="  24.8920   0.0000   0.0000   0.0000  24.8920   0.0000   0.0000   0.0000  24.8920 " ConfE="      -5935.7177" DelE="          0.4097"
Ni    -0.04647254    0.00585313   -3.59186323       1
Cr     3.46525678   -0.02088118    0.02995874       2
Cr     0.04109270   -0.01297156    3.39348993       3
Cr    -3.60176384   -0.03780302    0.01529163       4
Co    -0.01643462   -3.55503469   -0.01769307       5
Cr    -0.03710777    3.58330944   -0.01985495       6
Ni    -1.79605426   -0.02137303   -1.78895435       7
Ni     0.00105737    1.73710088   -1.74273435       8
Cr     0.05323986    1.96657055    1.82033763       9
Co    -0.01319719   -1.82282558    1.79470595      10
Cr     1.79443435   -1.86265949   -0.00910856      11
Co     1.84945556    1.94687641   -0.04444393      12
Ni    -1.74759831   -1.73276743   -0.00350642      13
Ni    -1.75707784    1.73298315   -0.01119930      14
Cr     1.75885830   -0.03567411   -1.76070292      15
Co     0.02300716   -1.74275803   -1.76397932      16
Cr    -1.76596857   -0.02731813    1.75945338      17
Ni     0.54469695    0.07847980    0.53547661      18
          18
Lattice="  24.8920   0.0000   0.0000   0.0000  24.8920   0.0000   0.0000   0.0000  24.8920 " ConfE="      -5936.4041" DelE="         -0.2766"
Ni    -0.05426441    0.00896283   -3.60316452       1
Cr     3.57490103   -0.00805667   -0.03529289       2
Cr    -0.00527256   -0.00450496    3.54991312       3
Cr    -3.61191975   -0.03757858    0.00705069       4
Co    -0.02052341   -3.54802235   -0.02732761       5
Cr    -0.02925211    3.56181761    0.00615251       6
Ni    -1.79902113   -0.01788192   -1.79538709       7
Ni    -0.03233845    1.75384597   -1.78175274       8
Cr    -0.00888506    1.72038823    1.74269611       9
Co    -0.03854103   -1.65683836    1.69845976      10
Cr     1.73593618   -1.75317507   -0.07893391      11
Co     1.72419553    1.73849406   -0.03443157      12
Ni    -1.76911998   -1.72481747   -0.02645158      13
Ni    -1.78591631    1.73092619   -0.03016564      14
Cr     1.74897564   -0.01824908   -1.76304281      15
Co     0.01483255   -1.73265928   -1.76866304      16
Cr    -1.73559674   -0.02031303    1.75609660      17
Ni     1.74600809   -0.01492170    1.68873732      18
