          18
Lattice="  24.8920   0.0000   0.0000   0.0000  24.8920   0.0000   0.0000   0.0000  24.8920 " ConfE="      -5924.8520" DelE="          0.0000"
Ni     0.01803648   -0.00016904    3.49852094       1
Ni    -3.54294316    0.02915437   -0.00812600       2
Co     0.06035061    0.04422862   -3.52714246       3
Co     3.61091987   -0.01373496   -0.01833970       4
Co     0.01479528   -3.50033605   -0.03699127       5
Cr     0.05325030    3.57074459   -0.05707463       6
Co    -0.00425563   -1.69732795    1.67928412       7
Cr    -0.00971980    1.71628020    1.72652844       8
Cr    -1.77170291   -1.66268889   -0.00939669       9
Cr    -1.76470935    1.70484104   -0.02579511      10
Ni     1.84294472   -0.00709965    1.74824395      11
Co    -1.73506423    0.01956693   -1.77727945      12
Cr     1.81500134   -0.00497889   -1.75432548      13
Cr     1.82846936   -1.77272744   -0.05180708      14
Ni     1.82243749    1.76877494   -0.01826689      15
Ni     0.02103442   -1.75116191   -1.81229278      16
Co     0.03331139    1.79599824   -1.74117196      17
Cr     0.00000000    0.00000000    0.00000000      18
          18
Lattice="  24.8920   0.0000   0.0000   0.0000  24.8920   0.0000   0.0000   0.0000  24.8920 " ConfE="      -5924.1707" DelE="          0.6813"
Ni     0.00570698    0.00140067    3.47234068       1
Ni    -3.49035743    0.03045489   -0.05291430       2
Co     0.04563001    0.03876656   -3.54573579       3
Co     3.60467640   -0.01071217    0.00338354       4
Co     0.02095807   -3.56512545   -0.04181063       5
Cr     0.07220403    3.64475115   -0.10975255       6
Co     0.05552501   -1.86271316    1.74188923       7
Cr     0.03655683    1.84921157    1.76256950       8
Cr    -1.82612612   -1.88767906   -0.11326528       9
Cr    -1.75981125    1.86254419   -0.14201712      10
Ni     1.74933152   -0.00180097    1.71893584      11
Co    -1.70858046    0.01376984   -1.74856584      12
Cr     1.72579300   -0.01580057   -1.66362975      13
Cr     1.71715275   -1.72076101   -0.01994054      14
Ni     1.76713879    1.76115052   -0.00728327      15
Ni    -0.00368515   -1.74392140   -1.77223779      16
Co    -0.00208570    1.75684686   -1.68679276      17
Cr    -0.79175649   -0.05953621    0.72261254      18
          18
Lattice="  24.8920   0.0000   0.0000   0.0000  24.8920   0.0000   0.0000   0.0000  24.8920 " ConfE="      -5924.8300" DelE="          0.0220"
Ni     0.04938341    0.00059860    3.54188007       1
Ni    -3.58524525    0.03793028   -0.02707868       2
Co     0.06104415    0.04757044   -3.55383239       3
Co     3.65359085   -0.01342383   -0.00596469       4
Co     0.01777850   -3.53478070   -0.04488620       5
Cr     0.06171741    3.57350943   -0.09045311       6
Co     0.02728870   -1.70555044    1.66199012       7
Cr     0.05404971    1.73088561    1.69153759       8
Cr    -1.73395598   -1.64384804   -0.05914204       9
Cr    -1.69222305    1.67030982   -0.11143642      10
Ni     1.81110931   -0.00523956    1.72654520      11
Co    -1.71896211    0.01970805   -1.72417160      12
Cr     1.79170733   -0.02110532   -1.70673790      13
Cr     1.79676402   -1.73361104   -0.04791511      14
Ni     1.81175264    1.73791434   -0.02902651      15
Ni     0.03170729   -1.71411180   -1.77912406      16
Co     0.03218229    1.77074721   -1.71607832      17
Cr    -1.65602243   -0.00150580    1.67633093      18
