          18
Lattice="  24.8920   0.0000   0.0000   0.0000  24.8920   0.0000   0.0000   0.0000  24.8920 " ConfE="      -5943.1384" DelE="          0.0000"
Ni    -0.03521945    0.05585585    3.44234275       1
Ni    -0.03210299    0.10139102   -3.64291585       2
Cr     0.01405764   -3.38174679    0.03951455       3
Cr     0.04020461    3.68548967   -0.04289060       4
Co     3.52916483    0.12539088   -0.07654242       5
Co    -3.56494699    0.08757157   -0.08966755       6
Ni     1.73580791    0.08872046    1.70984908       7
Ni    -1.78802514    0.06865730    1.70162462       8
Cr     1.74218876   -1.69250225   -0.00951196       9
Co    -1.73007630   -1.68718653   -0.06805656      10
Ni     1.76007224    0.10276180   -1.86199208      11
Co    -0.02367881    1.91544889    1.65889656      12
Co     1.74770567    1.89495941   -0.07417626      13
Cr    -1.78996946    1.87042352   -0.06927213      14
Cr    -0.02502968    1.88601419   -1.82276656      15
Cr    -1.78706414    0.09079482   -1.81651437      16
Co     0.00271053   -1.67651463   -1.87746011      17
Cr     0.00000000    0.00000000    0.00000000      18
          18
Lattice="  24.8920   0.0000   0.0000   0.0000  24.8920   0.0000   0.0000   0.0000  24.8920 " ConfE="      -5942.3492" DelE="          0.7892"
Ni    -0.02934430    0.05574548    3.40031086       1
Ni    -0.02304970    0.08548662   -3.62848148       2
Cr     0.03188055   -3.45152848    0.00379201       3
Cr     0.03712661    3.65795019   -0.03069913       4
Co     3.61710267    0.15509448   -0.10471600       5
Co    -3.63540865    0.09865056   -0.08908354       6
Ni     1.88671176    0.14654145    1.70768227       7
Ni    -1.92344974    0.10361445    1.72654342       8
Cr     1.93569673   -1.68771041   -0.06704914       9
Co    -1.89983566   -1.70464217   -0.10406367      10
Ni     1.76446474    0.10227352   -1.82296510      11
Co    -0.01781576    1.79986365    1.59203672      12
Co     1.75586284    1.87103503   -0.08203656      13
Cr    -1.70601057    1.77290103   -0.04821856      14
Cr    -0.00755731    1.84764239   -1.77379382      15
Cr    -1.68915493    0.04587791   -1.69250375      16
Co     0.01818798   -1.63472175   -1.73549444      17
Cr    -0.01178827   -0.94689780    0.90746682      18
          18
Lattice="  24.8920   0.0000   0.0000   0.0000  24.8920   0.0000   0.0000   0.0000  24.8920 " ConfE="      -5943.1563" DelE="         -0.0179"
Ni    -0.03954089    0.10119942    3.48679687       1
Ni    -0.02905566    0.10121714   -3.64869399       2
Cr     0.02001891   -3.50265882   -0.07073116       3
Cr     0.04528718    3.68967427   -0.03743127       4
Co     3.55550300    0.12856451   -0.08147144       5
Co    -3.59195697    0.09094260   -0.09001449       6
Ni     1.69930036    0.10968154    1.64993420       7
Ni    -1.77702300    0.10318471    1.66956309       8
Cr     1.71117848   -1.65973123   -0.05773038       9
Co    -1.73508820   -1.66085624   -0.09219718      10
Ni     1.75146623    0.11396457   -1.84248800      11
Co    -0.02762531    1.89140937    1.61292753      12
Co     1.74324382    1.90191942   -0.09132033      13
Cr    -1.74733410    1.83942009   -0.07973326      14
Cr    -0.01777260    1.84688910   -1.77036269      15
Cr    -1.75484403    0.09076023   -1.78682544      16
Co     0.00378210   -1.62710385   -1.79156499      17
Cr    -0.04544640   -1.65075263    1.65343598      18
