          18
Lattice="  24.8920   0.0000   0.0000   0.0000  24.8920   0.0000   0.0000   0.0000  24.8920 " ConfE="      -5939.4163" DelE="          0.0000"
Co    -0.00564280    3.55984463   -0.02642707       1
Cr     3.44930271    0.08210523    0.00127931       2
Co    -0.05035733   -3.54306863    0.01574364       3
Cr    -3.57148048   -0.05163401   -0.00867898       4
Co    -0.02558942    0.03725552   -3.51900957       5
Ni    -0.04573132    0.01917190    3.53388052       6
Cr     0.07524433    1.75712560   -1.61567433       7
Co     0.03117907    1.77087540    1.69589295       8
Co     1.75391174    0.02957507   -1.73734934       9
Co     1.77409394    0.02574616    1.74970038      10
Ni    -1.83379063    1.77643832    0.01798053      11
Ni     1.73926594   -1.79925654    0.02692740      12
Co    -1.81156323   -1.76772459   -0.00623224      13
Co    -1.79988270    0.00246931   -1.76927957      14
Ni    -1.79072465    0.01414362    1.78756989      15
Cr    -0.00418724   -1.77284931   -1.76243110      16
Cr    -0.06444972   -1.80218053    1.75795654      17
Co     0.00000000    0.00000000    0.00000000      18
          18
Lattice="  24.8920   0.0000   0.0000   0.0000  24.8920   0.0000   0.0000   0.0000  24.8920 " ConfE="      -5938.7142" DelE="          0.7021"
Co     0.01992826    3.50074735   -0.01368688       1
Cr     3.41370951    0.15526259   -0.04827886       2
Co    -0.03433147   -3.53660119    0.01452428       3
Cr    -3.57846134   -0.02345148   -0.00127505       4
Co    -0.04645953    0.01786368   -3.59036541       5
Ni    -0.05124581    0.00607877    3.57985931       6
Cr    -0.02396810    1.80361476   -1.80305632       7
Co    -0.02750416    1.80864420    1.85501454       8
Co     1.78567120   -0.05096208   -1.94390483       9
Co     1.80852861   -0.02033526    1.90663924      10
Ni    -1.77192530    1.75829682    0.01891515      11
Ni     1.74064736   -1.72139747    0.02162622      12
Co    -1.75706148   -1.71992980   -0.00133761      13
Co    -1.75910633    0.00617652   -1.75515758      14
Ni    -1.74764489    0.02589490    1.77580301      15
Cr    -0.01020366   -1.67804190   -1.68742313      16
Cr    -0.04530977   -1.74086561    1.70629299      17
Co     0.77761934    0.74934733   -0.02688006      18
          18
Lattice="  24.8920   0.0000   0.0000   0.0000  24.8920   0.0000   0.0000   0.0000  24.8920 " ConfE="      -5939.5881" DelE="         -0.1718"
Co    -0.03459255    3.59380176   -0.02799022       1
Cr     3.53420446    0.01153557    0.01783816       2
Co    -0.04948910   -3.55338153    0.01072211       3
Cr    -3.60850791   -0.04789446   -0.00209965       4
Co    -0.03248653    0.01926855   -3.55875349       5
Ni    -0.05357110    0.01016581    3.54906408       6
Cr     0.03623116    1.64605085   -1.61368964       7
Co     0.00693087    1.73815926    1.70356548       8
Co     1.72999385   -0.00079473   -1.75067067       9
Co     1.74106046   -0.00242196    1.75404482      10
Ni    -1.80147145    1.75383381    0.01244835      11
Ni     1.70304372   -1.74908492    0.01624200      12
Co    -1.78516718   -1.75051467   -0.00650736      13
Co    -1.77315982   -0.00957024   -1.74678391      14
Ni    -1.76832812    0.00475190    1.75661167      15
Cr    -0.02680526   -1.69782662   -1.70776675      16
Cr    -0.07019106   -1.77339155    1.70940116      17
Co     1.73782529    1.76122953   -0.00802829      18
