          18
Lattice="  24.8920   0.0000   0.0000   0.0000  24.8920   0.0000   0.0000   0.0000  24.8920 " ConfE="      -5947.8862" DelE="          0.0000"
Ni     0.02108281   -3.45757414    0.00795508       1
Ni     3.47284690   -0.02518129    0.02982151       2
Ni    -0.02985460    3.57696375    0.05069770       3
Co    -0.00276875    0.01553167    3.58568508       4
Co    -3.58861606   -0.02401246   -0.00590821       5
Co    -0.05018573    0.02143849   -3.50537688       6
Ni     0.03153010   -1.71162689    1.77229670       7
Ni    -0.01491001    1.80901251    1.81384714       8
Cr     1.74620239    0.05371969    1.76194072       9
Co     1.68843074    0.00312152   -1.68130052      10
Cr     0.03794582   -1.67074635   -1.72757179      11
Ni    -1.79098764    0.00217142    1.79178768      12
Co     1.73693799    1.82418222    0.02904459      13
Co    -1.80256778    1.80057755    0.02811800      14
Cr    -0.10768114    1.77017417   -1.74762922      15
Co    -1.83081962   -1.78563573   -0.00021451      16
Co    -1.82177017   -0.01526949   -1.75097054      17
Cr     0.00000000    0.00000000    0.00000000      18
          18
Lattice="  24.8920   0.0000   0.0000   0.0000  24.8920   0.0000   0.0000   0.0000  24.8920 " ConfE="      -5947.0982" DelE="          0.7880"
Ni     0.01783555   -3.44062537    0.02006207       1
Ni     3.47136684   -0.00967845    0.02537000       2
Ni    -0.02497556    3.56535334    0.04413886       3
Co    -0.01942733    0.02578181    3.65176598       4
Co    -3.59205417   -0.03402772   -0.00061933       5
Co    -0.06354389    0.03597552   -3.56676842       6
Ni    -0.03307446   -1.75016138    1.91786053       7
Ni    -0.02503564    1.77880151    1.80024845       8
Cr     1.73495179    0.13632323    1.93033446       9
Co     1.74498394    0.07505984   -1.85111726      10
Cr    -0.08172247   -1.68241565   -1.84406656      11
Ni    -1.74645029    0.00009096    1.77757519      12
Co     1.69321264    1.72035821    0.01990324      13
Co    -1.78361245    1.77895812    0.02336985      14
Cr    -0.09615057    1.57504956   -1.62815423      15
Co    -1.74992100   -1.75068396    0.01316937      16
Co    -1.78264742   -0.02133923   -1.72454593      17
Cr     1.01752096   -0.93643872    0.00018719      18
          18
Lattice="  24.8920   0.0000   0.0000   0.0000  24.8920   0.0000   0.0000   0.0000  24.8920 " ConfE="      -5947.5918" DelE="          0.2944"
Ni    -0.01293112   -3.50631739    0.01052729       1
Ni     3.54760059    0.02055644    0.01366841       2
Ni    -0.03030576    3.57179517    0.04788691       3
Co    -0.00863617    0.01840072    3.61358154       4
Co    -3.61535703   -0.03176062   -0.00633549       5
Co    -0.05699023    0.03275317   -3.54208406       6
Ni     0.00138454   -1.66353807    1.75046488       7
Ni    -0.03362546    1.78959138    1.80031495       8
Cr     1.72008473    0.11587526    1.74134142       9
Co     1.68249327    0.04443317   -1.68618634      10
Cr    -0.01186604   -1.57883717   -1.69497712      11
Ni    -1.78678933    0.00819919    1.77482267      12
Co     1.70545251    1.75001732    0.03909700      13
Co    -1.78757007    1.78043171    0.02305983      14
Cr    -0.13848293    1.70537360   -1.71374340      15
Co    -1.79322537   -1.77525179   -0.00948755      16
Co    -1.78416360   -0.00798510   -1.71543945      17
Cr     1.69944791   -1.65724531    0.00049204      18
