          18
Lattice="  24.8920   0.0000   0.0000   0.0000  24.8920   0.0000   0.0000   0.0000  24.8920 " ConfE="      -5949.8792" DelE="          0.0000"
Ni     3.44787657   -0.00311574    0.03993330       1
Ni    -0.07555137    0.05824645   -3.54501637       2
Co    -0.00470685   -3.37338540   -0.03768515       3
Co    -0.08864514    0.10476846    3.58521501       4
Co    -3.59940028    0.07651604    0.04082793       5
Cr    -0.07649870    3.61214668   -0.00742268       6
Ni     1.70594286    0.04802666    1.79838745       7
Co    -0.08816164   -1.69226772    1.80529030       8
Ni    -1.87057698   -1.70963494    0.01682890       9
Co     1.69834678    0.04170568   -1.74805216      10
Cr    -0.05546359   -1.72388309   -1.76478194      11
Cr     1.67919117    1.86473630    0.02147501      12
Co    -0.03580543    1.87120853    1.75038495      13
Cr    -1.75720683    0.01940414    1.80157795      14
Co    -1.78601628    1.82121571    0.03274553      15
Co    -1.83657342    0.06803136   -1.73596081      16
Cr    -0.04214486    1.84302772   -1.76877415      17
Ni     0.00000000    0.00000000    0.00000000      18
          18
Lattice="  24.8920   0.0000   0.0000   0.0000  24.8920   0.0000   0.0000   0.0000  24.8920 " ConfE="      -5949.3181" DelE="          0.5612"
Ni     3.42180960   -0.01230471    0.04349262       1
Ni    -0.08876131    0.08439065   -3.62637678       2
Co    -0.04302922   -3.41413265   -0.00964093       3
Co    -0.08816526    0.12371951    3.64352997       4
Co    -3.60571435    0.07348793    0.03787228       5
Cr    -0.05201201    3.60691866   -0.01539132       6
Ni     1.70806206    0.08854963    1.89936366       7
Co    -0.15968499   -1.69692468    1.97185945       8
Ni    -1.79520226   -1.66165398    0.04037861       9
Co     1.67604158    0.13884663   -1.87909370      10
Cr    -0.18812645   -1.67670593   -1.91329225      11
Cr     1.61900489    1.74330323    0.01461965      12
Co    -0.02454763    1.81995007    1.71405211      13
Cr    -1.70688116    0.03865695    1.77037756      14
Co    -1.74434756    1.77295686    0.03065086      15
Co    -1.78180761    0.06345546   -1.71582650      16
Cr    -0.03840358    1.74707517   -1.73887634      17
Ni     1.01589099   -1.12090669   -0.01938364      18
          18
Lattice="  24.8920   0.0000   0.0000   0.0000  24.8920   0.0000   0.0000   0.0000  24.8920 " ConfE="      -5949.7001" DelE="          0.1792"
Ni     3.49284911    0.03319666    0.03831230       1
Ni    -0.07913057    0.06416829   -3.57496546       2
Co    -0.06788499   -3.45992907   -0.00815783       3
Co    -0.09094820    0.11643365    3.61235496       4
Co    -3.61810033    0.07438348    0.03610538       5
Cr    -0.07452697    3.62744696   -0.00922495       6
Ni     1.68345580    0.08262855    1.80123724       7
Co    -0.11738358   -1.64242524    1.79251538       8
Ni    -1.83006612   -1.68112269    0.02498979       9
Co     1.62600757    0.09204021   -1.71288136      10
Cr    -0.09099562   -1.65110275   -1.75154078      11
Cr     1.62430437    1.80469512    0.01336394      12
Co    -0.04065976    1.84089341    1.71753645      13
Cr    -1.73682826    0.04115633    1.77145438      14
Co    -1.75877878    1.78405171    0.03383836      15
Co    -1.79073756    0.06212964   -1.70748195      16
Cr    -0.07181548    1.78570397   -1.73036772      17
Ni     1.64024079   -1.64553910    0.02287199      18
