          18
Lattice="  24.8920   0.0000   0.0000   0.0000  24.8920   0.0000   0.0000   0.0000  24.8920 " ConfE="      -5923.3350" DelE="          0.0000"
Ni    -0.00921423   -3.48035077    0.04020838       1
Ni    -0.01175384    0.02873717    3.62461063       2
Ni    -3.56342381    0.02850763    0.06769212       3
Cr    -0.00254372   -0.03068366   -3.37150622       4
Co     3.58029906    0.03545120    0.09280257       5
Cr    -0.00413748    3.57078826    0.06142987       6
Co     1.74321748   -1.67714778    0.00273479       7
Cr     1.79307049    0.03697195   -1.61063558       8
Ni    -0.01232720    1.81464200   -1.71134047       9
Ni    -0.02428093   -1.72662542    1.82930998      10
Cr    -1.72552347   -1.75075641   -0.04762246      11
Co    -1.73313010   -0.01250519   -1.72033562      12
Ni    -1.78293226    0.01001962    1.81203498      13
Co     1.79834385    1.78490233    0.04644814      14
Co     1.76326882    0.06044978    1.83715809      15
Co    -1.76431918    1.80682982    0.05040171      16
Cr     0.01390238    1.77581787    1.78143535      17
Co     0.00000000    0.00000000    0.00000000      18
          18
Lattice="  24.8920   0.0000   0.0000   0.0000  24.8920   0.0000   0.0000   0.0000  24.8920 " ConfE="      -5922.9218" DelE="          0.4133"
Ni     0.00042043   -3.47474603    0.04421185       1
Ni    -0.01340441    0.02763543    3.63089672       2
Ni    -3.60075466    0.03305314    0.08470904       3
Cr    -0.00131191   -0.03326280   -3.35516007       4
Co     3.62039306    0.04070057    0.10942421       5
Cr     0.00065776    3.59147749    0.06083096       6
Co     1.86162050   -1.71812712    0.07118245       7
Cr     1.96006168    0.07726698   -1.63470853       8
Ni    -0.00448527    1.77366459   -1.68949046       9
Ni    -0.01521334   -1.68334561    1.77361749      10
Cr    -1.79336285   -1.76188285   -0.03771449      11
Co    -1.94066805    0.11580329   -1.76974273      12
Ni    -1.77137960    0.00943340    1.78343960      13
Co     1.76761680    1.73937084    0.04332567      14
Co     1.75768332    0.06484287    1.82608937      15
Co    -1.73610807    1.77262036    0.05354691      16
Cr     0.03292143    1.72579441    1.72508521      17
Co     0.00465777   -0.57048514   -0.71837186      18
          18
Lattice="  24.8920   0.0000   0.0000   0.0000  24.8920   0.0000   0.0000   0.0000  24.8920 " ConfE="      -5923.4131" DelE="         -0.0780"
Ni    -0.00660975   -3.52044220    0.06466062       1
Ni    -0.01369367    0.03464182    3.63635209       2
Ni    -3.59585548    0.03315751    0.08367071       3
Cr    -0.00305704   -0.00086184   -3.44299835       4
Co     3.60711958    0.04661573    0.10194590       5
Cr     0.00293257    3.59196935    0.06203096       6
Co     1.74795507   -1.62835873    0.03969410       7
Cr     1.82863892    0.04014970   -1.59964554       8
Ni     0.01307839    1.72563693   -1.65690885       9
Ni    -0.02877254   -1.67644214    1.77245153      10
Cr    -1.74417174   -1.72773671   -0.02672169      11
Co    -1.77106673    0.02955114   -1.67089949      12
Ni    -1.76736538    0.02301332    1.78924888      13
Co     1.78000200    1.75724756    0.05745249      14
Co     1.74193708    0.08552726    1.83024914      15
Co    -1.73710565    1.79378114    0.06844955      16
Cr     0.02743965    1.77673147    1.76651119      17
Co    -0.01085668   -1.66816286   -1.63198550      18
