          18
Lattice="  24.8920   0.0000   0.0000   0.0000  24.8920   0.0000   0.0000   0.0000  24.8920 " ConfE="      -5949.7371" DelE="          0.0000"
Ni     0.00933003   -3.55187591   -0.01235183       1
Cr    -0.04237088    0.08552854    3.49715980       2
Ni     0.03616459   -0.00789953   -3.58403316       3
Co    -3.47734174   -0.00603709    0.01428047       4
Ni     3.57404783   -0.01454233   -0.04233412       5
Co     0.03761494    3.54872814   -0.04888727       6
Ni    -0.01915035   -1.72005290    1.76574080       7
Ni     1.78941568    1.76712899   -0.05393178       8
Co    -1.72225668    1.75219411   -0.02466279       9
Co    -0.01148984    1.73800725    1.75232423      10
Ni     1.79703502   -1.76518287    0.00370803      11
Co    -1.78663481   -1.75675457    0.04158860      12
Cr    -0.00089119    1.74986091   -1.79905470      13
Cr     1.76821771    0.08570805    1.75912573      14
Co     0.02533910   -1.77281299   -1.79966717      15
Co    -1.74678999   -0.01221129   -1.81981919      16
Cr     1.74986435   -0.08799389   -1.80305201      17
Co     0.00000000    0.00000000    0.00000000      18
          18
Lattice="  24.8920   0.0000   0.0000   0.0000  24.8920   0.0000   0.0000   0.0000  24.8920 " ConfE="      -5949.0442" DelE="          0.6929"
Ni     0.02032743   -3.61025686   -0.02282343       1
Cr    -0.05991922    0.06752665    3.40734401       2
Ni     0.03535916   -0.00840146   -3.57621106       3
Co    -3.39792619   -0.00281686    0.03953134       4
Ni     3.57172266   -0.02107391   -0.02921295       5
Co     0.05326419    3.60879272   -0.08217730       6
Ni     0.03018681   -1.91751942    1.79591433       7
Ni     1.75077686    1.75962226   -0.03058483       8
Co    -1.75364197    1.92391216   -0.06044303       9
Co     0.02750741    1.92805762    1.77378805      10
Ni     1.76719623   -1.77420592    0.01717965      11
Co    -1.80876497   -1.91599316    0.00748249      12
Cr    -0.04973475    1.69770519   -1.71847410      13
Cr     1.69321302    0.04799687    1.70387812      14
Co     0.01862995   -1.76324403   -1.75926924      15
Co    -1.69243221   -0.00844825   -1.73817974      16
Cr     1.63642763   -0.07407618   -1.67536342      17
Co    -0.67909301    0.00459141    0.68151444      18
          18
Lattice="  24.8920   0.0000   0.0000   0.0000  24.8920   0.0000   0.0000   0.0000  24.8920 " ConfE="      -5949.7366" DelE="          0.0005"
Ni     0.01774764   -3.56539445   -0.01773590       1
Cr    -0.00780608    0.07470163    3.56450320       2
Ni     0.03568313   -0.01244394   -3.60711859       3
Co    -3.50838165    0.00844600   -0.02382617       4
Ni     3.58667619   -0.01754944   -0.04260043       5
Co     0.04790046    3.56393352   -0.07001080       6
Ni     0.01760627   -1.72740633    1.74007888       7
Ni     1.75914853    1.72354101   -0.07073585       8
Co    -1.68607836    1.75294750   -0.04934793       9
Co     0.04056645    1.75105887    1.72064940      10
Ni     1.77425067   -1.73135802    0.00404505      11
Co    -1.76650716   -1.76923120    0.01491515      12
Cr    -0.00574091    1.71550036   -1.79423688      13
Cr     1.71767044    0.08818556    1.74278135      14
Co     0.03934922   -1.74311786   -1.78352024      15
Co    -1.68538629   -0.00739382   -1.76260612      16
Cr     1.70760116   -0.09637586   -1.77847419      17
Co    -1.68823988    0.02679793    1.72650690      18
