          18
Lattice="  24.8920   0.0000   0.0000   0.0000  24.8920   0.0000   0.0000   0.0000  24.8920 " ConfE="      -5937.8487" DelE="          0.0000"
Ni     0.03265308   -3.52874970   -0.01678070       1
Ni    -3.56026888   -0.00913699   -0.03428741       2
Co     3.42174249   -0.03865630    0.02624683       3
Cr     0.05757090    3.53275642    0.00577527       4
Co    -0.02443598   -0.00132845   -3.54442015       5
Cr     0.01440501    0.02988958    3.52140066       6
Ni     0.04920357   -1.76433435   -1.74351984       7
Ni     0.02642343   -1.77084024    1.74005900       8
Ni     0.00604854    1.77532496   -1.79481601       9
Cr     1.77055870   -0.01896437   -1.65410610      10
Cr     1.78617238   -0.04645738    1.64005539      11
Co     0.00597917    1.75072050    1.75287025      12
Co     1.75360614    1.81311867    0.01210540      13
Cr    -1.81812424   -1.78251785   -0.05027940      14
Cr    -1.76414824    1.81808301    0.02308518      15
Cr    -1.76542090   -0.00541264   -1.80552927      16
Co    -1.77254199    0.00884783    1.73346492      17
Cr     0.00000000    0.00000000    0.00000000      18
          18
Lattice="  24.8920   0.0000   0.0000   0.0000  24.8920   0.0000   0.0000   0.0000  24.8920 " ConfE="      -5937.1920" DelE="          0.6566"
Ni     0.04252337   -3.44886692   -0.02255715       1
Ni    -3.57803820   -0.03260777   -0.03373521       2
Co     3.43907340   -0.02896999    0.01980605       3
Cr     0.07518717    3.48451319    0.04712456       4
Co    -0.05933300    0.02126356   -3.64415607       5
Cr    -0.03486065    0.05282492    3.64534560       6
Ni    -0.00642820   -1.80664394   -1.92405994       7
Ni    -0.00444880   -1.75193310    1.86960105       8
Ni     0.02161111    1.74302801   -1.78698871       9
Cr     1.75607520    0.04584174   -1.92877696      10
Cr     1.80211710    0.08106438    1.88205562      11
Co     0.01921884    1.66584467    1.72262061      12
Co     1.73045444    1.68361481   -0.00221005      13
Cr    -1.72902625   -1.69706976   -0.02828920      14
Cr    -1.68994380    1.68899008    0.04164754      15
Cr    -1.64001627   -0.01903687   -1.68774057      16
Co    -1.74035927   -0.00178593    1.71356466      17
Cr     1.00647963   -0.89025742   -0.05040186      18
          18
Lattice="  24.8920   0.0000   0.0000   0.0000  24.8920   0.0000   0.0000   0.0000  24.8920 " ConfE="      -5937.8701" DelE="         -0.0215"
Ni    -0.00398537   -3.55386987   -0.01318557       1
Ni    -3.60051502   -0.01338045   -0.03330106       2
Co     3.52839340   -0.01178773    0.02987470       3
Cr     0.05630760    3.52867796    0.03236977       4
Co    -0.04169740    0.00670585   -3.57838738       5
Cr    -0.00764048    0.04807069    3.55749364       6
Ni     0.00419452   -1.74442600   -1.75468145       7
Ni    -0.01124697   -1.72543767    1.74241487       8
Ni    -0.00661678    1.74846714   -1.75508121       9
Cr     1.71863516    0.00540143   -1.65198763      10
Cr     1.74273277    0.02966695    1.64110706      11
Co     0.00713189    1.71492994    1.72256089      12
Co     1.73745605    1.69869962    0.00351388      13
Cr    -1.77440058   -1.70060072   -0.04883093      14
Cr    -1.72557333    1.72163471    0.03832426      15
Cr    -1.73123116    0.00711884   -1.73244462      16
Co    -1.75670165    0.02311879    1.68612890      17
Cr     1.73121645   -1.72725477    0.01989263      18
