          18
Lattice="  24.8920   0.0000   0.0000   0.0000  24.8920   0.0000   0.0000   0.0000  24.8920 " ConfE="      -5946.8813" DelE="          0.0000"
Co    -0.10355152    0.03936810    3.44329091       1
Ni     3.38060795    0.02746387   -0.03740622       2
Cr    -0.18442436    0.04284619   -3.62996571       3
Cr    -3.76112173    0.05761996   -0.08289492       4
Co    -0.12646671   -3.50529294   -0.08864405       5
Cr    -0.13324746    3.66148036   -0.05713841       6
Ni    -0.10482442   -1.71293438    1.71780310       7
Ni    -0.08781719    1.80072070    1.71353396       8
Co     1.62621412   -1.71629295   -0.07014349       9
Cr     1.70211462    1.80220593   -0.01525994      10
Cr    -1.92771518    0.06707231    1.68298347      11
Cr     1.60824622    0.04376863   -1.88150820      12
Ni    -1.92670572    0.06199943   -1.80133253      13
Co    -1.90727995   -1.71767263   -0.05443583      14
Cr    -1.91153553    1.86204180   -0.04472074      15
Cr    -0.22240902   -1.75626778   -1.82648302      16
Co    -0.13776753    1.80574014   -1.79292748      17
Cr     0.00000000    0.00000000    0.00000000      18
          18
Lattice="  24.8920   0.0000   0.0000   0.0000  24.8920   0.0000   0.0000   0.0000  24.8920 " ConfE="      -5946.4748" DelE="          0.4065"
Co    -0.09347125    0.03471274    3.39691696       1
Ni     3.34698768    0.03078210   -0.04902237       2
Cr    -0.17340444    0.03975108   -3.61273065       3
Cr    -3.72081654    0.07079710   -0.06787540       4
Co    -0.14144835   -3.57307190   -0.11029794       5
Cr    -0.15579419    3.71896863   -0.07800905       6
Ni    -0.15085261   -1.84421212    1.73122935       7
Ni    -0.12122628    1.93781107    1.76561694       8
Co     1.65641961   -1.87998033   -0.12135509       9
Cr     1.67768969    1.94799161   -0.06027973      10
Cr    -1.86455984    0.06485426    1.65686931      11
Cr     1.57340349    0.02056646   -1.83821337      12
Ni    -1.90785058    0.07457163   -1.78216506      13
Co    -1.85462971   -1.68916519   -0.05404607      14
Cr    -1.78002971    1.81627737   -0.00850296      15
Cr    -0.18860902   -1.67812532   -1.74557676      16
Co    -0.10682547    1.76593243   -1.73894957      17
Cr     0.89344963    0.00303563    0.86733923      18
          18
Lattice="  24.8920   0.0000   0.0000   0.0000  24.8920   0.0000   0.0000   0.0000  24.8920 " ConfE="      -5947.2203" DelE="         -0.3390"
Co    -0.11775371    0.04689327    3.47895569       1
Ni     3.44657047    0.02268209   -0.07121336       2
Cr    -0.18178995    0.04349111   -3.61621767       3
Cr    -3.75690534    0.06513162   -0.07847869       4
Co    -0.13712439   -3.53548431   -0.09962584       5
Cr    -0.14899802    3.66841631   -0.06341812       6
Ni    -0.14044869   -1.70171755    1.68701271       7
Ni    -0.12135431    1.79363837    1.68131881       8
Co     1.59635805   -1.70450329   -0.08965432       9
Cr     1.65081917    1.79600016   -0.07080426      10
Cr    -1.88917862    0.07184702    1.64319733      11
Cr     1.49921553    0.00155024   -1.71969786      12
Ni    -1.93404165    0.06801950   -1.79543995      13
Co    -1.88976175   -1.68823380   -0.06441652      14
Cr    -1.91304143    1.84101960   -0.04343720      15
Cr    -0.25334006   -1.73203377   -1.80954552      16
Co    -0.15196608    1.77638281   -1.76502816      17
Cr     1.59487426    0.01011774    1.59854005      18
