          18
Lattice="  24.8920   0.0000   0.0000   0.0000  24.8920   0.0000   0.0000   0.0000  24.8920 " ConfE="      -5939.6144" DelE="          0.0000"
Co    -0.03435826   -3.45173958   -0.00102325       1
Cr     3.43474782    0.02219305   -0.00546614       2
Co    -0.05260236    3.63385089   -0.03690535       3
Cr    -3.59409292   -0.00922491   -0.02459202       4
Co    -0.04333337    0.05629314   -3.52754140       5
Ni    -0.06430327    0.04566985    3.51723835       6
Cr     0.05584639   -1.78195074   -1.72024356       7
Cr     0.00238352   -1.80617110    1.69257039       8
Co     1.73618808    0.02235469   -1.76394013       9
Co     1.75675062    0.01058366    1.73316588      10
Co    -1.86154344   -1.73378125   -0.02149720      11
Co     1.74962652    1.86397462   -0.02410818      12
Ni    -1.82866314    1.80961577   -0.00217831      13
Co    -1.80748003    0.01787679   -1.78464738      14
Ni    -1.79896023    0.03560723    1.76847325      15
Cr    -0.00351729    1.83578598   -1.72022285      16
Co    -0.01273463    1.82642012    1.72166278      17
Ni     0.00000000    0.00000000    0.00000000      18
          18
Lattice="  24.8920   0.0000   0.0000   0.0000  24.8920   0.0000   0.0000   0.0000  24.8920 " ConfE="      -5939.2121" DelE="          0.4023"
Co    -0.01405331   -3.41725314   -0.00428111       1
Cr     3.37667886   -0.02040169   -0.02100715       2
Co    -0.05065614    3.62248955   -0.04299809       3
Cr    -3.59295336   -0.02556074   -0.01816515       4
Co    -0.05951423    0.05897279   -3.60666244       5
Ni    -0.07782198    0.05740084    3.59036642       6
Cr    -0.03488913   -1.79753853   -1.94895158       7
Cr    -0.08137689   -1.81756911    1.88268974       8
Co     1.76928294    0.06993529   -1.97397890       9
Co     1.77513365    0.07159258    1.91887170      10
Co    -1.77745402   -1.69575215   -0.02995150      11
Co     1.69656169    1.76187341   -0.02948217      12
Ni    -1.79147241    1.76452786    0.00129888      13
Co    -1.76887089    0.01785665   -1.77758095      14
Ni    -1.77065109    0.03024655    1.77217684      15
Cr     0.02547216    1.67426744   -1.65523722      16
Co    -0.00140875    1.76345079    1.70534393      17
Ni     0.80471535   -0.79836707   -0.03559731      18
          18
Lattice="  24.8920   0.0000   0.0000   0.0000  24.8920   0.0000   0.0000   0.0000  24.8920 " ConfE="      -5939.5881" DelE="          0.0263"
Co    -0.07115655   -3.50679291   -0.00577160       1
Cr     3.51253701    0.05812419    0.00134446       2
Co    -0.05626000    3.64039037   -0.04448393       3
Cr    -3.63017536   -0.00130584   -0.01859335       4
Co    -0.05415398    0.06585717   -3.57524719       5
Ni    -0.07523855    0.05675443    3.53257038       6
Cr    -0.04847271   -1.65123800   -1.72426045       7
Cr    -0.09185851   -1.72680293    1.69290746       8
Co     1.70832640    0.04579389   -1.76716437       9
Co     1.71939301    0.04416666    1.73755112      10
Co    -1.80683463   -1.70392605   -0.02300106      11
Co     1.71615784    1.80781814   -0.02452199      12
Ni    -1.82313890    1.80042243   -0.00404535      13
Co    -1.79482728    0.03701838   -1.76327761      14
Ni    -1.78999557    0.05134051    1.74011797      15
Cr     0.01456371    1.69263946   -1.63018334      16
Co    -0.01473659    1.78474788    1.68707178      17
Ni     1.68137626   -1.70249630   -0.00025170      18
