          18
Lattice="  24.8920   0.0000   0.0000   0.0000  24.8920   0.0000   0.0000   0.0000  24.8920 " ConfE="      -5940.0587" DelE="          0.0000"
Ni     0.06294114    0.08313924   -3.55513643       1
Cr     0.00205898    3.58840466    0.01423790       2
Cr     0.02053077    0.00634294    3.52377333       3
Co     0.03880299   -3.52762118   -0.00829854       4
Cr    -3.42984970    0.05055319    0.04648314       5
Cr     3.58546107    0.00349091   -0.03583338       6
Ni    -1.68194836    0.04837263   -1.80106938       7
Cr     1.77849554    0.03984937   -1.77274730       8
Co    -1.64391700    1.81300869   -0.01812925       9
Ni     1.76608941    1.81396710   -0.05433108      10
Ni     0.03954975   -1.79341490   -1.82337573      11
Cr     0.06098947    1.78599205    1.78799749      12
Co     0.07212259   -1.77530178    1.75785109      13
Cr    -1.73217748   -1.79490414    0.02505187      14
Cr     1.83319757   -1.78536059   -0.06805766      15
Co    -1.69627990    0.01970052    1.76407884      16
Cr     1.80873728   -0.01148541    1.73963635      17
Cr     0.00000000    0.00000000    0.00000000      18
          18
Lattice="  24.8920   0.0000   0.0000   0.0000  24.8920   0.0000   0.0000   0.0000  24.8920 " ConfE="      -5938.6358" DelE="          1.4229"
Ni     0.06373747    0.03450772   -3.54346155       1
Cr     0.05308390    3.53752573    0.03202866       2
Cr     0.00203742   -0.10239259    3.40816655       3
Co     0.02837509   -3.44838488    0.03110911       4
Cr    -3.56760469    0.03304952    0.03749472       5
Cr     3.69902758    0.01326851   -0.01062935       6
Ni    -1.83226873   -0.04623782   -1.81577923       7
Cr     1.99876618   -0.03184741   -1.84420101       8
Co    -1.71670555    1.76059787   -0.02110628       9
Ni     1.94083563    1.84305664    0.01987886      10
Ni     0.06309495   -1.72406123   -1.76787632      11
Cr     0.05920274    1.64221039    1.68424196      12
Co     0.12098827   -0.99903234    0.95046817      13
Cr    -1.81940728   -1.75968028   -0.02797203      14
Cr     1.96088442   -1.77093881   -0.13988143      15
Co    -1.82356933    0.04773676    1.71805335      16
Cr     1.95473647    0.04843119    1.74100597      17
Cr     0.14753683    0.84669055   -1.04352224      18
          18
Lattice="  24.8920   0.0000   0.0000   0.0000  24.8920   0.0000   0.0000   0.0000  24.8920 " ConfE="      -5939.8586" DelE="          0.2001"
Ni     0.06417819    0.03881411   -3.59670565       1
Cr     0.03575575    3.58751248    0.01720283       2
Cr     0.00715849   -0.07012593    3.44018181       3
Co     0.03317338   -3.48553779    0.03251277       4
Cr    -3.42420877    0.01753621    0.06104857       5
Cr     3.57264635   -0.01310475   -0.02167951       6
Ni    -1.69264847    0.00702618   -1.78402187       7
Cr     1.81499103    0.00309809   -1.78145858       8
Co    -1.68142029    1.80846099    0.00434421       9
Ni     1.82722310    1.81940113   -0.01638611      10
Ni     0.04743328   -1.77904402   -1.83856170      11
Cr     0.06808674    1.79901622    1.76998444      12
Co     0.08151045   -0.00443307    0.00875352      13
Cr    -1.65914758   -1.79321221    0.06569559      14
Cr     1.77872496   -1.78700312   -0.03129023      15
Co    -1.65018075   -0.01654261    1.74607168      16
Cr     1.77345306   -0.05689261    1.73225982      17
Cr     0.07352490    1.80721182   -1.83204247      18
