          18
Lattice="  24.8920   0.0000   0.0000   0.0000  24.8920   0.0000   0.0000   0.0000  24.8920 " ConfE="      -5943.3356" DelE="          0.0000"
Ni     3.55513131    0.00701977    0.01239660       1
Co     0.03655474    3.55449056   -0.05196019       2
Co    -3.57843875   -0.04061622   -0.02694002       3
Co    -0.05452621   -3.54496531   -0.00299511       4
Ni     0.00408911   -0.01295175   -3.53913047       5
Cr     0.00920577   -0.05550029    3.56413526       6
Ni     1.75758672    0.03353761   -1.74397353       7
Ni     1.77349513    0.01613745    1.75838842       8
Co    -0.00504457    1.81479168   -1.79300237       9
Ni     0.03337505    1.75533371    1.74165716      10
Ni     1.74996361   -1.79738877   -0.01966500      11
Ni    -1.80116691    1.75329270   -0.01524330      12
Cr    -1.80293308   -1.75924762   -0.02664626      13
Co    -0.03803836   -1.82270216   -1.76498515      14
Cr    -0.03661810   -1.77727132    1.78275657      15
Co    -1.79419049   -0.02607290   -1.79959542      16
Co    -1.78795099   -0.01671474    1.77570463      17
Ni     0.00000000    0.00000000    0.00000000      18
          18
Lattice="  24.8920   0.0000   0.0000   0.0000  24.8920   0.0000   0.0000   0.0000  24.8920 " ConfE="      -5939.1224" DelE="          4.2132"
Ni     3.56438593   -0.00041460   -0.00708910       1
Co     0.02313554    3.61716558   -0.07195000       2
Co    -3.65232253   -0.07117612   -0.00214930       3
Co    -0.07228595   -3.60913404    0.00303393       4
Ni     0.00127575    0.01244586   -3.56383668       5
Cr     0.01893580   -0.05764295    3.54699360       6
Ni     1.53893991   -0.20680028   -1.58812577       7
Ni     1.73649698    0.01148756    1.70439394       8
Co     1.91315366    1.96470074   -2.18634963       9
Ni     0.02079255    1.71829466    1.65541754      10
Ni     1.71068043   -1.86010795    0.05256582      11
Ni    -1.89678639    1.72499602    0.03722984      12
Cr    -1.78411614   -1.75720682   -0.02565425      13
Co    -0.13805395   -1.88351821   -1.73244572      14
Cr    -0.06440289   -1.75327511    1.73711480      15
Co    -1.88883819   -0.11634345   -1.77837816      16
Co    -1.74783124   -0.06298772    1.72746233      17
Ni    -0.25768488    1.63644997   -1.63600054      18
          18
Lattice="  24.8920   0.0000   0.0000   0.0000  24.8920   0.0000   0.0000   0.0000  24.8920 " ConfE="      -5943.2332" DelE="          0.1024"
Ni     3.57509539   -0.02170806    0.00152813       1
Co     0.00237099    3.60480692   -0.03185313       2
Co    -3.60045737   -0.04611574   -0.02009320       3
Co    -0.05268656   -3.57467192   -0.01312540       4
Ni     0.00239474   -0.01116261   -3.55884954       5
Cr     0.00183322   -0.06554781    3.59640823       6
Ni     1.74785205    0.00157505   -1.74836332       7
Ni     1.72334023   -0.02641390    1.74559304       8
Co     1.80614968    1.78414769    0.01261531       9
Ni     0.01164704    1.72322880    1.73734810      10
Ni     1.70770391   -1.76371953   -0.01910343      11
Ni    -1.76520466    1.72053252   -0.01297768      12
Cr    -1.75332015   -1.73467818   -0.02980082      13
Co    -0.05169552   -1.78869377   -1.72823735      14
Cr    -0.06490577   -1.75589741    1.73448610      15
Co    -1.77601190   -0.03790667   -1.77073095      16
Co    -1.73700836   -0.04965600    1.73584872      17
Ni     0.01016807    1.75685133   -1.74092603      18
