          19
Lattice="  24.8920   0.0000   0.0000   0.0000  24.8920   0.0000   0.0000   0.0000  24.8920 " ConfE="      -5946.1220" DelE="          0.0000"
Ni     2.72914697    0.02195151   -2.70524691       1
Ni     0.03287723    3.57420172    0.06194297       2
Ni     0.03988246    0.01665831    3.60340427       3
Cr    -3.52714449   -0.00672848    0.04082987       4
Cr     0.12686717    0.00324003   -3.43181162       5
Co     3.56763740    0.02254555   -0.04480761       6
Co     0.02411189   -3.58150114    0.03903393       7
Ni     1.79711077   -1.77993413    0.03957808       8
Ni     0.06784870   -1.77542463   -1.73416244       9
Ni     0.06332920    1.78729453   -1.71817644      10
Co     1.85248051    1.73913817   -0.06361102      11
Ni     0.01370181   -1.77213107    1.82295221      12
Cr    -1.76261324    0.00518274   -1.74289277      13
Cr    -1.74309838   -1.75692732    0.03989826      14
Co    -1.76178558    1.77383087    0.05292458      15
Cr    -1.71665574    0.02106029    1.81115048      16
Co     1.74007115    0.03563313    1.80372949      17
Cr     0.08862887    1.69107489    1.75959800      18
Co     0.00000000    0.00000000    0.00000000      19
          19
Lattice="  24.8920   0.0000   0.0000   0.0000  24.8920   0.0000   0.0000   0.0000  24.8920 " ConfE="      -5945.2805" DelE="          0.8415"
Ni     2.92077440   -0.00278968   -2.82956116       1
Ni     0.01554380    3.67687830    0.08236399       2
Ni     0.03876219    0.01405548    3.55587745       3
Cr    -3.57142382   -0.01839632   -0.00473806       4
Cr     0.15821525    0.02113461   -3.30894129       5
Co     3.49136282    0.03391595   -0.06611376       6
Co     0.01716252   -3.66556319    0.05067814       7
Ni     1.83513377   -1.93278482    0.06773741       8
Ni     0.03051960   -1.93792657   -1.72162418       9
Ni     0.02788196    1.99449930   -1.71978756      10
Co     1.87578828    1.94829246   -0.01314008      11
Ni     0.02305293   -1.77064735    1.76117731      12
Cr    -1.63441876    0.03111054   -1.57740326      13
Cr    -1.73122885   -1.79158976    0.03201034      14
Co    -1.73903089    1.79152408    0.04230215      15
Cr    -1.64870012    0.03228798    1.66076087      16
Co     1.72516426    0.02332401    1.71808668      17
Cr     0.11145818    1.64191820    1.63094258      18
Co     0.80604126    0.03790801   -0.71258096      19
          19
Lattice="  24.8920   0.0000   0.0000   0.0000  24.8920   0.0000   0.0000   0.0000  24.8920 " ConfE="      -5946.6254" DelE="         -0.5034"
Ni     3.54741375    0.00000464   -3.43554483       1
Ni     0.02545943    3.56240331    0.06231309       2
Ni     0.03093151    0.01675605    3.61602603       3
Cr    -3.54923874   -0.00399362    0.05826624       4
Cr     0.05490724    0.00909007   -3.44827183       5
Co     3.58967220    0.03400165   -0.01320304       6
Co     0.02611686   -3.56635305    0.03765271       7
Ni     1.79110170   -1.75240072    0.04909136       8
Ni     0.03620463   -1.74889769   -1.70939143       9
Ni     0.03304215    1.76912893   -1.70269134      10
Co     1.83321681    1.70766648   -0.05483956      11
Ni     0.00598587   -1.77210947    1.83544885      12
Cr    -1.80721505    0.00984089   -1.72300242      13
Cr    -1.76403633   -1.75622664    0.05734371      14
Co    -1.78539034    1.78137310    0.06181215      15
Cr    -1.73591894    0.01999812    1.82952935      16
Co     1.73140689    0.03581901    1.82342144      17
Cr     0.07099283    1.69285061    1.77779119      18
Co    -0.05000547    0.00298810    0.04742080      19
