          18
Lattice="  24.8920   0.0000   0.0000   0.0000  24.8920   0.0000   0.0000   0.0000  24.8920 " ConfE="      -5949.9357" DelE="          0.0000"
Ni     0.03783844    0.02526788    3.48719404       1
Ni    -0.02441584    0.02361178   -3.63419163       2
Cr     3.47006363   -0.03191672    0.11976230       3
Co    -3.58398856    0.06617424   -0.05011661       4
Co    -0.07032778    3.55138191   -0.05395606       5
Co    -0.00950438   -3.48869665   -0.03670180       6
Ni    -0.03541681    1.79469426    1.74527735       7
Ni     0.02975783   -1.71573888    1.74984498       8
Ni     1.73991565    1.73564186   -0.01296764       9
Ni    -1.81469696    0.04466682    1.75436056      10
Ni    -1.81194560   -1.72448674   -0.04207723      11
Co     1.82033717   -1.71009134   -0.05916432      12
Ni    -0.01941616    1.75421468   -1.80070746      13
Ni    -1.81216352    0.01473572   -1.81641939      14
Cr    -1.83454388    1.81649047   -0.02458439      15
Co    -0.01083830   -1.76706456   -1.81799334      16
Cr     1.73947340   -0.13146190   -1.79898187      17
Ni     0.00000000    0.00000000    0.00000000      18
          18
Lattice="  24.8920   0.0000   0.0000   0.0000  24.8920   0.0000   0.0000   0.0000  24.8920 " ConfE="      -5949.3923" DelE="          0.5434"
Ni     0.05005387    0.02345309    3.43428516       1
Ni    -0.02187724    0.02739742   -3.63139342       2
Cr     3.39610944   -0.01200868    0.13431175       3
Co    -3.59624719    0.06145376   -0.04304356       4
Co    -0.10602444    3.59996332   -0.06634021       5
Co    -0.03320809   -3.52319381   -0.03658653       6
Ni    -0.08292699    1.91193061    1.75644015       7
Ni    -0.02870040   -1.86664901    1.81077231       8
Ni     1.75505122    1.90460620   -0.06077569       9
Ni    -1.75156718    0.04122535    1.71451281      10
Ni    -1.77562671   -1.70985056   -0.02978603      11
Co     1.86219223   -1.92641850   -0.12200182      12
Ni    -0.03045587    1.75180592   -1.77355467      13
Ni    -1.78694182    0.01779185   -1.78180013      14
Cr    -1.83137461    1.81043226   -0.02062885      15
Co     0.00675960   -1.72048605   -1.76634710      16
Cr     1.68498334   -0.11271324   -1.72451768      17
Ni     0.68972747   -0.03263794    0.63522662      18
          18
Lattice="  24.8920   0.0000   0.0000   0.0000  24.8920   0.0000   0.0000   0.0000  24.8920 " ConfE="      -5950.1217" DelE="         -0.1859"
Ni    -0.01373890    0.03422825    3.52845346       1
Ni    -0.02676208    0.02538619   -3.64787797       2
Cr     3.56671006   -0.02436336    0.03382922       3
Co    -3.60639220    0.06545555   -0.04903717       4
Co    -0.07689595    3.57254548   -0.05765828       5
Co    -0.02380902   -3.50941547   -0.03276029       6
Ni    -0.05608245    1.78790816    1.71831172       7
Ni    -0.01299791   -1.70600014    1.71828501       8
Ni     1.71303354    1.72202576   -0.04501328       9
Ni    -1.78855219    0.05125861    1.71890011      10
Ni    -1.78978782   -1.69407575   -0.04798013      11
Co     1.79244498   -1.73085495   -0.07891054      12
Ni    -0.03085635    1.71490817   -1.76657298      13
Ni    -1.81076159    0.01828151   -1.80239954      14
Cr    -1.84474090    1.80938963   -0.02932600      15
Co    -0.00386577   -1.71157692   -1.78117104      16
Cr     1.68521147   -0.14589874   -1.73082937      17
Ni     1.73191241    0.00643483    1.71773198      18
