          18
Lattice="  24.8920   0.0000   0.0000   0.0000  24.8920   0.0000   0.0000   0.0000  24.8920 " ConfE="      -5922.8122" DelE="          0.0000"
Ni    -0.00410673    3.47690892   -0.01708955       1
Ni     3.52769019   -0.02992752   -0.01204363       2
Ni    -3.58382177   -0.00275225   -0.02968858       3
Ni    -0.04007297   -0.02875775   -3.58956629       4
Co     0.03176232    0.08623247    3.46799724       5
Co    -0.01073112   -3.51726849   -0.01620401       6
Ni     1.74805505    1.72029138   -0.04285506       7
Ni    -1.76036054    0.02331051    1.72985924       8
Ni    -0.03698989   -1.76729823   -1.78870263       9
Cr    -1.78348776    1.78122074   -0.03612749      10
Cr     1.72411591    0.00862318    1.81686826      11
Cr     0.02078900   -1.79842170    1.80665035      12
Cr    -1.82260108   -1.78696293   -0.01935279      13
Co     1.74175678   -1.77245429    0.00918972      14
Cr    -0.01151865    1.70362447   -1.81959733      15
Cr     1.83138724   -0.15393727   -1.87283069      16
Co    -1.81158065   -0.01180094   -1.77717207      17
Ni     0.00000000    0.00000000    0.00000000      18
          18
Lattice="  24.8920   0.0000   0.0000   0.0000  24.8920   0.0000   0.0000   0.0000  24.8920 " ConfE="      -5922.1597" DelE="          0.6526"
Ni     0.00338453    3.42609394   -0.00950128       1
Ni     3.60681014   -0.04973188   -0.03631301       2
Ni    -3.64763909   -0.01232739   -0.04564046       3
Ni    -0.03650326   -0.01949777   -3.59131407       4
Co    -0.01106439    0.05164475    3.48386688       5
Co     0.00209162   -3.52212056   -0.02350226       6
Ni     1.93444696    1.73720204   -0.14106749       7
Ni    -1.93563727   -0.03703493    1.75740301       8
Ni    -0.03302435   -1.72267825   -1.75178956       9
Cr    -1.90011249    1.78023850   -0.05915392      10
Cr     1.91415563   -0.08712713    1.81803512      11
Cr    -0.01092830   -1.68169061    1.71220077      12
Cr    -1.77535585   -1.72607097   -0.00346869      13
Co     1.69529214   -1.67678943    0.02452724      14
Cr    -0.01809700    1.57940826   -1.68547582      15
Cr     1.80598231   -0.12810099   -1.83252955      16
Co    -1.77655660    0.01423101   -1.70893156      17
Ni     0.04099401    1.01514488    1.03648121      18
          18
Lattice="  24.8920   0.0000   0.0000   0.0000  24.8920   0.0000   0.0000   0.0000  24.8920 " ConfE="      -5922.5685" DelE="          0.2437"
Ni     0.00265415    3.52046956   -0.05301689       1
Ni     3.54614858   -0.03598133   -0.01440948       2
Ni    -3.60739827   -0.01053902   -0.03584258       3
Ni    -0.04084790   -0.02876863   -3.61503287       4
Co     0.00153726    0.01323362    3.55297727       5
Co     0.00089326   -3.54110134   -0.02719791       6
Ni     1.73173345    1.67478983   -0.07054776       7
Ni    -1.76943830   -0.01743340    1.71107435       8
Ni    -0.03043644   -1.73208159   -1.75971768       9
Cr    -1.76217553    1.71107720   -0.08006322      10
Cr     1.74005748   -0.05342674    1.80003155      11
Cr     0.00540223   -1.73826518    1.73985613      12
Cr    -1.78157221   -1.75733871   -0.01610633      13
Co     1.66180481   -1.67900980    0.04326742      14
Cr    -0.00916913    1.62273838   -1.75660829      15
Cr     1.81554348   -0.14063931   -1.87657378      16
Co    -1.76315084    0.00792915   -1.73075515      17
Ni    -0.00939194    1.69751810    1.68981207      18
