          23
Lattice="  24.8920   0.0000   0.0000   0.0000  24.8920   0.0000   0.0000   0.0000  24.8920 " ConfE="      -5937.4395" DelE="          0.0000"
Cr    -0.02987009   -2.57144557    2.66233359       1
Ni    -0.02029357    2.53746416   -2.50845001       2
Co    -1.77750691   -0.92908540    2.74112254       3
Ni    -1.78495247   -2.63659483    0.97531745       4
Co     1.76850579   -2.61418415    0.97651903       5
Co     1.80059557   -0.91140559    2.72953289       6
Cr    -1.79475945    2.57990644   -0.75359356       7
Ni    -1.80293975    0.86712529   -2.54744867       8
Ni     1.76066756    2.59511484   -0.81346348       9
Co     1.77767970    0.78759306   -2.51908237      10
Ni    -3.62790212   -0.91447533    0.98276249      11
Cr     3.61054498   -0.95790303    1.05845101      12
Ni     3.59512290    0.88008998   -0.79021282      13
Ni    -3.62402531    0.86692635   -0.82130300      14
Ni     0.00787945    0.78829379    2.68333403      15
Cr     0.03606853   -2.55529166   -0.60603965      16
Ni    -0.01501539   -0.90129276   -2.48847369      17
Ni    -0.01632015    2.53321910    0.92311563      18
Ni     0.00000000    0.00000000    0.00000000      19
Co    -1.94548581    0.91492639    0.98662343      20
Co    -1.98860535   -0.98701227   -0.87957113      21
Cr     1.94144906   -0.92091355   -0.83876305      22
Ni     1.91816608    0.87959033    1.02429360      23
          23
Lattice="  24.8920   0.0000   0.0000   0.0000  24.8920   0.0000   0.0000   0.0000  24.8920 " ConfE="      -5937.3925" DelE="          0.0471"
Cr    -0.03261207   -2.59025440    2.68331442       1
Ni    -0.01603898    2.55580711   -2.52469350       2
Co    -1.77166807   -0.93179359    2.74323998       3
Ni    -1.76953882   -2.64957891    0.97007092       4
Co     1.75453221   -2.62104215    0.96832891       5
Co     1.79293041   -0.91193486    2.73372443       6
Cr    -1.78353479    2.58203340   -0.75516721       7
Ni    -1.78030698    0.86483391   -2.52500641       8
Ni     1.74365095    2.59089859   -0.81328427       9
Co     1.77207296    0.78626101   -2.51527837      10
Ni    -3.60451006   -0.91575477    0.97981342      11
Cr     3.57881273   -0.95866926    1.05021152      12
Ni     3.59441550    0.88677198   -0.79167005      13
Ni    -3.62046724    0.86620294   -0.82460493      14
Ni     0.00576926    0.80040968    2.69999762      15
Cr     0.03321175   -2.63809425   -0.66863053      16
Ni    -0.01325590   -0.90624738   -2.47185162      17
Ni    -0.02041408    2.55122600    0.93261994      18
Ni    -0.00942481   -0.26475667    0.23380496      19
Co    -1.92437022    0.92423899    0.96240950      20
Co    -1.98510547   -0.99731208   -0.89372221      21
Cr     1.93773070   -0.90432447   -0.85849745      22
Ni     1.89409811    0.88852177    1.00868125      23
          23
Lattice="  24.8920   0.0000   0.0000   0.0000  24.8920   0.0000   0.0000   0.0000  24.8920 " ConfE="      -5938.0034" DelE="         -0.5639"
Cr    -0.03361183   -2.65748129    2.79666419       1
Ni    -0.02669683    2.56260961   -2.53553281       2
Co    -1.78642124   -0.92585430    2.76800085       3
Ni    -1.75209930   -2.67043636    0.97746321       4
Co     1.77909980   -2.66452733    0.99234082       5
Co     1.80430701   -0.90467203    2.75854452       6
Cr    -1.78476206    2.59870361   -0.76404495       7
Ni    -1.77785110    0.86997130   -2.55518203       8
Ni     1.71902283    2.59698770   -0.81823979       9
Co     1.76610421    0.79623194   -2.54086963      10
Ni    -3.54795217   -0.91059187    0.96238910      11
Cr     3.53329253   -0.95658496    1.03997835      12
Ni     3.54731036    0.86852711   -0.78348839      13
Ni    -3.56927120    0.85235724   -0.81668350      14
Ni     0.00637888    0.85893803    2.77820101      15
Cr     0.03204647   -2.67951764   -0.77575839      16
Ni    -0.00415233   -0.91057566   -2.56001490      17
Ni    -0.03251005    2.59273049    0.94510076      18
Ni     0.00612753   -0.87304142    0.96027493      19
Co    -1.80276328    0.90475379    0.94222992      20
Co    -1.73582027   -0.89066372   -0.81223020      21
Cr     1.74018505   -0.85954906   -0.81851196      22
Ni     1.77366076    0.85944838    0.97093086      23
