          18
Lattice="  24.8920   0.0000   0.0000   0.0000  24.8920   0.0000   0.0000   0.0000  24.8920 " ConfE="      -5934.5982" DelE="          0.0000"
Ni    -0.00704483    3.53715863    0.01626219       1
Ni    -0.04944647   -0.03179738   -3.50128315       2
Ni    -0.03398313   -3.61765753    0.02061763       3
Co     3.54546403   -0.06060226    0.00580791       4
Cr    -0.04088076   -0.00273315    3.55478133       5
Co    -3.56881130   -0.07044162    0.03297314       6
Ni     1.72057113    0.00733154    1.73891723       7
Ni     0.01463372    1.76070472   -1.73012076       8
Co    -0.07220752    1.72345783    1.80387097       9
Co     1.78485227   -0.02150790   -1.74949162      10
Ni    -0.03823740   -1.82421736   -1.74003830      11
Co    -1.84076942    1.73156628    0.03909963      12
Cr    -1.77915957    0.05168470    1.75267755      13
Cr     0.00361664   -1.81053566    1.77945081      14
Co    -1.84364199   -0.04252407   -1.76073791      15
Cr    -1.80159111   -1.80959950    0.04806684      16
Cr     1.75617211   -1.82090190    0.01854298      17
Ni     0.00000000    0.00000000    0.00000000      18
          18
Lattice="  24.8920   0.0000   0.0000   0.0000  24.8920   0.0000   0.0000   0.0000  24.8920 " ConfE="      -5933.3459" DelE="          1.2522"
Ni     0.00630166    3.50769473    0.00943172       1
Ni    -0.09497267   -0.03641621   -3.55150253       2
Ni    -0.02840848   -3.64628610    0.00602871       3
Co     3.47780839   -0.07746314    0.01614857       4
Cr    -0.06013596   -0.01742266    3.67562589       5
Co    -3.54075143   -0.07958016    0.03809787       6
Ni     1.67241845   -0.09898423    1.94500469       7
Ni    -0.07739760    1.76589516   -1.82725883       8
Co    -0.11451659    1.79081742    1.91273355       9
Co     1.78873638   -0.08897542   -1.93002547      10
Ni    -0.05180495   -1.78098683   -1.72713012      11
Co    -1.81905520    1.81883728   -0.00348964      12
Cr    -1.21308708   -0.01377895    1.10535553      13
Cr     0.00260553   -1.92405463    1.83041422      14
Co    -1.79284754   -0.02306824   -1.66040575      15
Cr    -1.78455157   -1.91121238   -0.05128682      16
Cr     1.53847486   -1.62301792    0.03734497      17
Ni     1.14401942    1.07598043    0.02639062      18
          18
Lattice="  24.8920   0.0000   0.0000   0.0000  24.8920   0.0000   0.0000   0.0000  24.8920 " ConfE="      -5934.2254" DelE="          0.3728"
Ni    -0.03866185    3.56869753    0.00816984       1
Ni    -0.06781332   -0.03636029   -3.51457207       2
Ni    -0.03870320   -3.63647669    0.01553116       3
Co     3.57653436   -0.06759148    0.01079961       4
Cr    -0.05378329   -0.01559982    3.60782369       5
Co    -3.60154206   -0.07477278    0.03151431       6
Ni     1.67202065   -0.02185729    1.73145779       7
Ni    -0.04343326    1.72704539   -1.72907994       8
Co    -0.09170528    1.69501090    1.79000725       9
Co     1.74840981   -0.05551719   -1.73442339      10
Ni    -0.05767798   -1.80035714   -1.72250087      11
Co    -1.80090430    1.67226005    0.04416079      12
Cr    -1.74135463    0.05118753    1.70360544      13
Cr    -0.02381068   -1.79553035    1.75493793      14
Co    -1.84606451   -0.05498519   -1.74066404      15
Cr    -1.75294872   -1.76796552    0.03301288      16
Cr     1.65171984   -1.73000557   -0.00258148      17
Ni     1.71176367    1.73717393   -0.00650250      18
