          18
Lattice="  24.8920   0.0000   0.0000   0.0000  24.8920   0.0000   0.0000   0.0000  24.8920 " ConfE="      -5949.8902" DelE="          0.0000"
Ni    -3.48258513   -0.00348337   -0.02458630       1
Cr    -0.00464956   -3.48076498    0.03197778       2
Cr     0.05121271    0.05746594    3.58474336       3
Cr     3.58825289    0.07468562    0.04961754       4
Co     0.03840211    0.03324251   -3.53376589       5
Cr     0.02983541    3.57756633    0.02128595       6
Ni     0.00582357   -1.72928862    1.76259842       7
Ni     1.83719883   -1.72423844    0.01996129       8
Cr     0.04117781   -1.74358610   -1.77949338       9
Cr    -1.79453710   -0.01805697    1.78187997      10
Co    -1.75360090   -0.00380302   -1.79309892      11
Ni     1.81634734    0.05082957    1.80239352      12
Ni     0.03516635    1.78994056    1.79894517      13
Cr    -1.72139300    1.81838324   -0.00603946      14
Co     1.81199693    0.02670051   -1.77843093      15
Co    -0.00801130    1.78896566   -1.76615823      16
Co     1.77977943    1.81414692   -0.02065461      17
Ni     0.00000000    0.00000000    0.00000000      18
          18
Lattice="  24.8920   0.0000   0.0000   0.0000  24.8920   0.0000   0.0000   0.0000  24.8920 " ConfE="      -5949.5503" DelE="          0.3399"
Ni    -3.47422424   -0.00110728   -0.03899158       1
Cr    -0.01845780   -3.42220690    0.05005164       2
Cr     0.08348065    0.10057673    3.62405105       3
Cr     3.61220991    0.07012913    0.05319549       4
Co     0.05609322    0.05526427   -3.56148664       5
Cr     0.02607621    3.59150641    0.01853342       6
Ni     0.04576264   -1.72117436    1.88981640       7
Ni     1.78062821   -1.68081938    0.01698964       8
Cr     0.13624940   -1.75393200   -2.01359177       9
Cr    -1.81622911   -0.00350938    1.86813652      10
Co    -1.83261823    0.05017913   -1.97364798      11
Ni     1.83002690    0.05415098    1.81061741      12
Ni     0.03674567    1.76813941    1.78476380      13
Cr    -1.67608343    1.75396458   -0.01221312      14
Co     1.80161126    0.02556878   -1.76708940      15
Co    -0.02454892    1.71379021   -1.70026594      16
Co     1.75766113    1.76900244   -0.01629093      17
Ni    -0.51623296   -0.55978197   -0.11933632      18
          18
Lattice="  24.8920   0.0000   0.0000   0.0000  24.8920   0.0000   0.0000   0.0000  24.8920 " ConfE="      -5950.0572" DelE="         -0.1670"
Ni    -3.53317037    0.02880955   -0.02152853       1
Cr     0.03548875   -3.53638976    0.02877425       2
Cr     0.06861588    0.07482137    3.60526681       3
Cr     3.60606836    0.07338543    0.04917094       4
Co     0.04124978    0.05033757   -3.55649802       5
Cr     0.03536600    3.59199938    0.01754262       6
Ni     0.03365006   -1.69320349    1.75521123       7
Ni     1.77553604   -1.68624000    0.00649325       8
Cr     0.08593374   -1.69987148   -1.80585745       9
Cr    -1.73964350    0.02898866    1.76830938      10
Co    -1.73340892    0.03800876   -1.79162787      11
Ni     1.80882838    0.05602377    1.77832650      12
Ni     0.04835990    1.77289055    1.76430358      13
Cr    -1.66276610    1.73644649   -0.01406986      14
Co     1.78619477    0.02593933   -1.75705951      15
Co    -0.00488496    1.74291231   -1.70373149      16
Co     1.76957028    1.78255564   -0.02324016      17
Ni    -1.70158356   -1.69350254   -0.02015428      18
