          19
Lattice="  24.8920   0.0000   0.0000   0.0000  24.8920   0.0000   0.0000   0.0000  24.8920 " ConfE="      -5937.9250" DelE="          0.0000"
Ni    -0.00289476   -2.78160001    2.69101424       1
Co     0.01048201    3.59445578   -0.10482240       2
Co     0.00923855    0.00341900   -3.76076005       3
Cr    -0.05381800   -3.43148627   -0.02577862       4
Cr    -0.00265117   -0.09123979    3.16153407       5
Cr    -3.60101922    0.03702902   -0.14502884       6
Ni     3.54836164    0.04702101   -0.18103491       7
Co    -1.76857369   -0.00981705    1.58662326       8
Co     1.76485079    0.01968112    1.62854597       9
Co    -1.73391358   -1.73587601   -0.11671973      10
Ni     1.76285998   -1.74174335   -0.11154659      11
Ni    -0.00321320    1.80060598   -1.88773111      12
Co    -1.79961070    1.83746378   -0.13834393      13
Co     1.76676238    1.80952232   -0.12641453      14
Ni    -1.75243389    0.06035564   -1.91108854      15
Cr     1.71451560    0.00302274   -1.90261438      16
Cr    -0.02956088    1.85151122    1.56405712      17
Cr    -0.02897942   -1.73540010   -1.89223320      18
Cr     0.00000000    0.00000000    0.00000000      19
          19
Lattice="  24.8920   0.0000   0.0000   0.0000  24.8920   0.0000   0.0000   0.0000  24.8920 " ConfE="      -5937.2190" DelE="          0.7060"
Ni     0.01041060   -2.82044660    2.69823275       1
Co     0.01386855    3.61914446   -0.09745784       2
Co     0.00691841   -0.00836018   -3.74542049       3
Cr    -0.03175891   -3.46505582   -0.03699841       4
Cr    -0.00712305   -0.04980776    3.22668108       5
Cr    -3.67442341    0.05174229   -0.16359697       6
Ni     3.60880803    0.04891563   -0.20605622       7
Co    -1.90850407    0.06373002    1.56733608       8
Co     1.92580626    0.07171018    1.61482269       9
Co    -1.83321931   -1.73646333   -0.13657541      10
Ni     1.90298000   -1.78683705   -0.15317065      11
Ni    -0.00523484    1.76588885   -1.84517296      12
Co    -1.78389203    1.82293894   -0.11414560      13
Co     1.73207975    1.76362517   -0.10941605      14
Ni    -1.73976198    0.04636617   -1.86226683      15
Cr     1.65684473   -0.01495432   -1.80827500      16
Cr    -0.02663801    1.78546338    1.50324656      17
Cr    -0.02338206   -1.71548164   -1.82358563      18
Cr     0.02847570   -0.80533745    0.79386569      19
          19
Lattice="  24.8920   0.0000   0.0000   0.0000  24.8920   0.0000   0.0000   0.0000  24.8920 " ConfE="      -5938.0965" DelE="         -0.1715"
Ni    -0.01066374   -3.47200722    3.32826698       1
Co     0.01548259    3.65095605   -0.11437871       2
Co     0.00829986    0.00690469   -3.78275977       3
Cr    -0.03018157   -3.53888380   -0.14809770       4
Cr    -0.01312207    0.05940813    3.32912769       5
Cr    -3.61280170    0.03946373   -0.14303826       6
Ni     3.56769845    0.05193150   -0.20890227       7
Co    -1.73724381    0.06336515    1.52527821       8
Co     1.74527841    0.07709754    1.54918403       9
Co    -1.70962811   -1.68574396   -0.16007377      10
Ni     1.77968834   -1.71890833   -0.17823079      11
Ni    -0.00124886    1.79483733   -1.87342127      12
Co    -1.78885724    1.85726893   -0.14243814      13
Co     1.74604022    1.81626290   -0.13807238      14
Ni    -1.74482725    0.07555598   -1.91579068      15
Cr     1.70016960    0.01625708   -1.92963837      16
Cr    -0.01095673    1.75112797    1.48231974      17
Cr    -0.02138925   -1.66396918   -1.81890778      18
Cr     0.02119265   -1.58631954    1.53082727      19
