          18
Lattice="  24.8920   0.0000   0.0000   0.0000  24.8920   0.0000   0.0000   0.0000  24.8920 " ConfE="      -5938.3950" DelE="          0.0000"
Ni     3.51594251   -0.03602195   -0.01360344       1
Co    -0.07120840    3.52773429    0.01295425       2
Co     0.02920898   -0.04084937   -3.54152158       3
Co    -3.61668602   -0.02929125   -0.01165003       4
Cr    -0.08268975    0.03921307    3.51837429       5
Co    -0.04179728   -3.58797316    0.01994138       6
Ni     1.70815433    1.75544675   -0.05104460       7
Ni    -1.73557934    0.06303893   -1.76496389       8
Cr     1.66348455   -0.01486675   -1.78729561       9
Cr    -1.80828216    1.73739879    0.02967031      10
Ni    -0.02423722   -1.78886685    1.78222115      11
Co    -0.02148139    1.74619140    1.77735111      12
Cr     1.77379169    0.02105239    1.78884518      13
Cr    -0.08922198   -1.81161415   -1.75716287      14
Cr     1.70236711   -1.79942627    0.01495153      15
Co    -1.79941269   -1.76726012    0.01056783      16
Cr    -1.83386509    0.01704751    1.75528614      17
Co     0.00000000    0.00000000    0.00000000      18
          18
Lattice="  24.8920   0.0000   0.0000   0.0000  24.8920   0.0000   0.0000   0.0000  24.8920 " ConfE="      -5937.4963" DelE="          0.8987"
Ni     3.56823094   -0.03441829    0.01336396       1
Co    -0.05609155    3.52938417    0.00805401       2
Co    -0.00107790   -0.02469789   -3.52359342       3
Co    -3.67599703   -0.05665095    0.00063560       4
Cr    -0.09415228    0.05129048    3.54177773       5
Co    -0.04320692   -3.57976348    0.01695600       6
Ni     1.87358768    1.79277559    0.04542828       7
Ni    -1.92413259   -0.04129655   -1.80702190       8
Cr     1.76586837   -0.02996475   -1.75165329       9
Cr    -1.90478908    1.71120394    0.03412125      10
Ni    -0.02485089   -1.75535588    1.75422027      11
Co    -0.03665925    1.66711795    1.62673546      12
Cr     1.70590442    0.04294986    1.72976093      13
Cr    -0.08566270   -1.69066442   -1.72190838      14
Cr     1.65409124   -1.71058223    0.00258444      15
Co    -1.77398339   -1.72858236    0.00069235      16
Cr    -1.76776679    0.01089879    1.69153764      17
Co    -0.03171989    1.17766809   -1.14814104      18
          18
Lattice="  24.8920   0.0000   0.0000   0.0000  24.8920   0.0000   0.0000   0.0000  24.8920 " ConfE="      -5937.9201" DelE="          0.4749"
Ni     3.54190445   -0.03892971    0.00750125       1
Co    -0.05772241    3.55973784    0.02899652       2
Co     0.02275656   -0.06592754   -3.58833228       3
Co    -3.63025706   -0.03579908   -0.00609049       4
Cr    -0.08995743    0.03390017    3.56222422       5
Co    -0.04180098   -3.60155919    0.02575799       6
Ni     1.72583870    1.74218836    0.00723168       7
Ni    -1.75998450    0.00592792   -1.74948169       8
Cr     1.63865492   -0.02981478   -1.67651324       9
Cr    -1.79240456    1.69763920    0.03847553      10
Ni    -0.02512894   -1.76159264    1.76494102      11
Co    -0.04654641    1.67975090    1.70767080      12
Cr     1.72812789    0.01366204    1.75686311      13
Cr    -0.07183676   -1.75975459   -1.72244512      14
Cr     1.67283114   -1.77562718    0.03083884      15
Co    -1.76925976   -1.74447924    0.01230520      16
Cr    -1.78622502    0.00739148    1.73929803      17
Co    -0.00084502    1.68719801   -1.72938858      18
