          18
Lattice="  24.8920   0.0000   0.0000   0.0000  24.8920   0.0000   0.0000   0.0000  24.8920 " ConfE="      -5943.5625" DelE="          0.0000"
Ni    -3.50467203   -0.00637669   -0.00933109       1
Ni     0.01257105   -0.02659462    3.47588506       2
Ni     0.04044870   -0.00095036   -3.61216839       3
Cr     3.56458184   -0.01837409   -0.06724298       4
Cr     0.03184784    3.59519709   -0.01556857       5
Co     0.02799343   -3.55161531   -0.03328704       6
Ni    -1.76036909   -1.76251589    0.02379880       7
Ni    -0.01179875    1.74301879    1.74331944       8
Co    -1.74900410    1.78562940   -0.06235370       9
Co     0.07081834   -1.80430937    1.71560311      10
Cr    -1.72667579    0.01008762   -1.81236976      11
Co     1.80132700    0.02251230   -1.81855553      12
Co     0.03687755    1.79807653   -1.81603663      13
Cr     0.02899287   -1.79535883   -1.76359129      14
Cr     1.82723190    0.01304485    1.70928246      15
Co     1.83043138   -1.78116575   -0.04160735      16
Cr     1.79071906    1.77188581   -0.04457344      17
Ni     0.00000000    0.00000000    0.00000000      18
          18
Lattice="  24.8920   0.0000   0.0000   0.0000  24.8920   0.0000   0.0000   0.0000  24.8920 " ConfE="      -5942.2457" DelE="          1.3169"
Ni    -3.44854177    0.00277945   -0.00755026       1
Ni     0.00724828   -0.02726147    3.45609869       2
Ni     0.02850119    0.00136736   -3.64455104       3
Cr     3.54950746    0.04742627   -0.04007287       4
Cr     0.16943843    3.63913062   -0.00334915       5
Co     0.05528701   -3.58165500   -0.04995798       6
Ni    -1.78331494   -1.93694089   -0.03836225       7
Ni     0.06977280    1.88305718    1.81111067       8
Co    -1.71635202    1.94966078   -0.13197900       9
Co     0.16706579   -1.91933442    1.71123608      10
Cr    -1.52115371    0.00854645   -1.60741984      11
Co     1.84995447   -0.01692292   -1.98866187      12
Co     0.02602959    1.81437461   -1.89340484      13
Cr     0.11775993   -1.64365153   -1.63205532      14
Cr     1.77623652   -0.01864781    1.80256336      15
Co     1.81004648   -1.68479260   -0.05599087      16
Cr     1.22123245    1.06964762   -0.13334712      17
Ni    -1.03548052   -0.00591646    1.02380595      18
          18
Lattice="  24.8920   0.0000   0.0000   0.0000  24.8920   0.0000   0.0000   0.0000  24.8920 " ConfE="      -5943.4135" DelE="          0.1491"
Ni    -3.52573581   -0.00880714   -0.04749584       1
Ni     0.05433067   -0.02308276    3.49211137       2
Ni     0.05255881    0.00623612   -3.60723632       3
Cr     3.45613308    0.04020854   -0.08496338       4
Cr     0.14925434    3.58378409   -0.00031784       5
Co     0.03579084   -3.55802106   -0.03886752       6
Ni    -1.73321574   -1.77946329   -0.03082207       7
Ni     0.06134684    1.75277690    1.70369331       8
Co    -1.73979165    1.78830192   -0.07798006       9
Co     0.08680607   -1.78872829    1.69265552      10
Cr    -1.68863551    0.02327726   -1.78602282      11
Co     1.79731355    0.05101731   -1.79780443      12
Co     0.07747888    1.82290351   -1.78462721      13
Cr     0.05108118   -1.81837996   -1.80064991      14
Cr     1.81242369    0.05001981    1.66219499      15
Co     1.83305154   -1.82824348   -0.05558141      16
Cr     0.14955231    0.01701460   -0.10018298      17
Ni    -1.72027676   -0.00144641    1.70858496      18
