          18
Lattice="  24.8920   0.0000   0.0000   0.0000  24.8920   0.0000   0.0000   0.0000  24.8920 " ConfE="      -5934.6642" DelE="          0.0000"
Ni     0.00216853   -0.01245358   -3.54571071       1
Cr     0.00350142    3.50501482    0.03161363       2
Cr     3.48368033    0.03459819   -0.00347237       3
Ni    -0.02380410   -3.56559027   -0.02711292       4
Cr    -3.62668181   -0.04419652   -0.01080237       5
Co    -0.00717469   -0.01142359    3.57179387       6
Ni    -0.02017464    1.76545699   -1.73199813       7
Cr     1.79905595    0.06485683   -1.72828184       8
Ni    -0.00892200   -1.78476468   -1.80144398       9
Ni     1.75806641   -1.80328160   -0.01983900      10
Ni    -1.85720764    1.74047806    0.00873041      11
Ni    -1.80917254   -0.01981478   -1.78153265      12
Cr     0.01014749    1.75177995    1.74664691      13
Ni    -1.82147720   -1.79006918   -0.00597178      14
Co     1.76479669    0.03964790    1.76570877      15
Co    -0.00658986   -1.77469573    1.79184501      16
Cr    -1.78389430   -0.02732148    1.82210954      17
Ni     0.00000000    0.00000000    0.00000000      18
          18
Lattice="  24.8920   0.0000   0.0000   0.0000  24.8920   0.0000   0.0000   0.0000  24.8920 " ConfE="      -5934.3042" DelE="          0.3599"
Ni    -0.02760339   -0.02761514   -3.59103823       1
Cr     0.06713779    3.41537003    0.01202261       2
Cr     3.42425207    0.06266328   -0.00120991       3
Ni    -0.02393550   -3.56848800   -0.02814784       4
Cr    -3.63681766   -0.02938042   -0.01122327       5
Co    -0.01472777   -0.02432626    3.60994384       6
Ni    -0.05115032    1.76763633   -1.86228115       7
Cr     1.79128611    0.01058385   -1.86352310       8
Ni    -0.02444677   -1.76615864   -1.79137896       9
Ni     1.73164195   -1.74602331   -0.01479320      10
Ni    -1.79345596    1.71802666    0.01057076      11
Ni    -1.80516748   -0.01836102   -1.77820205      12
Cr    -0.05077157    1.79352524    1.96071893      13
Ni    -1.81718349   -1.77605629   -0.01682695      14
Co     1.84832870    0.01562704    1.97463842      15
Co    -0.00117363   -1.69377649    1.75294669      16
Cr    -1.70980456   -0.04075357    1.76345966      17
Ni     0.50381139    0.51812919    0.09510152      18
          18
Lattice="  24.8920   0.0000   0.0000   0.0000  24.8920   0.0000   0.0000   0.0000  24.8920 " ConfE="      -5934.3840" DelE="          0.2802"
Ni    -0.03719563   -0.03813035   -3.62594679       1
Cr     0.08651207    3.41940255    0.01315822       2
Cr     3.43986448    0.09105446   -0.00220238       3
Ni    -0.01478893   -3.54394545   -0.03652704       4
Cr    -3.60523460   -0.02328402   -0.01246411       5
Co    -0.02214022   -0.03955240    3.63541951       6
Ni    -0.06375833    1.75834377   -1.91107729       7
Cr     1.79591545   -0.01546824   -1.94826535       8
Ni    -0.02195077   -1.75989145   -1.81161901       9
Ni     1.71590314   -1.68328271   -0.01842497      10
Ni    -1.72016486    1.68517253    0.02256621      11
Ni    -1.79830084   -0.01934444   -1.79393360      12
Cr    -0.07233000    1.75103226    2.01809262      13
Ni    -1.79029875   -1.74900009   -0.02104462      14
Co     1.84359586   -0.00918563    2.02199784      15
Co    -0.00411040   -1.68530856    1.76528556      16
Cr    -1.74339278   -0.06004117    1.79952582      17
Ni     0.86726912    0.84394128    0.06170247      18
