          19
Lattice="  24.8920   0.0000   0.0000   0.0000  24.8920   0.0000   0.0000   0.0000  24.8920 " ConfE="      -5927.7338" DelE="          0.0000"
Cr    -3.26313153    1.71980472    1.44890581       1
Cr    -0.06048709    3.54415328   -0.02029181       2
Co    -3.58094164   -0.09286738    0.00183487       3
Co     3.58399822   -0.05590025    0.00460907       4
Co     0.02948653   -3.64372566   -0.02440724       5
Cr     0.01161368    0.00662887   -3.46265927       6
Cr     0.01984189   -0.02198403    3.51663889       7
Ni    -0.04251645    1.76665928   -1.73224943       8
Ni    -0.02038530    1.77391428    1.71710601       9
Ni    -1.79364821   -0.00582447   -1.71521668      10
Cr     1.83826962    1.74304474   -0.03386150      11
Co     0.03264256   -1.79942645   -1.72108350      12
Co    -1.76804905   -1.85823764   -0.01398780      13
Cr     1.76905332   -1.84255741   -0.02678665      14
Cr    -0.02176666   -1.87966210    1.65987930      15
Cr     1.74783453   -0.06250960    1.73566857      16
Cr     1.78886334   -0.02437140   -1.74635134      17
Cr    -1.70601176   -0.05051628    1.68751816      18
Co     0.00000000    0.00000000    0.00000000      19
          19
Lattice="  24.8920   0.0000   0.0000   0.0000  24.8920   0.0000   0.0000   0.0000  24.8920 " ConfE="      -5926.7900" DelE="          0.9438"
Cr    -3.17888853    1.70742503    1.44977792       1
Cr    -0.12133122    3.47780918   -0.01114338       2
Co    -3.51256889   -0.08332557   -0.00827421       3
Co     3.54413344   -0.05276157   -0.00003394       4
Co     0.01684288   -3.66738841   -0.03895915       5
Cr     0.03511127   -0.00992701   -3.56298888       6
Cr     0.07087697   -0.04476469    3.62269544       7
Ni    -0.00892777    1.77264267   -1.89089777       8
Ni     0.07249672    1.82606479    1.93709086       9
Ni    -1.78094367   -0.09187276   -1.89247381      10
Cr     1.68289117    1.73050340   -0.02949845      11
Co     0.05439230   -1.75014951   -1.68952162      12
Co    -1.71890529   -1.77588918   -0.01549032      13
Cr     1.73534012   -1.87453444   -0.04233910      14
Cr    -0.06362405   -1.89229863    1.61999475      15
Cr     1.56292459   -0.09505346    1.59209414      16
Cr     1.67842717   -0.04031098   -1.65629854      17
Cr    -1.65581099   -0.10166897    1.87077167      18
Co    -1.05569028    0.96970827    0.05707050      19
          19
Lattice="  24.8920   0.0000   0.0000   0.0000  24.8920   0.0000   0.0000   0.0000  24.8920 " ConfE="      -5927.5016" DelE="          0.2322"
Cr    -3.45658055    1.69603792    1.71233503       1
Cr    -0.04518595    3.59101078   -0.00751355       2
Co    -3.58856043   -0.07507463    0.00625672       3
Co     3.58523275   -0.06248838   -0.00031991       4
Co     0.02178993   -3.67538917   -0.03474145       5
Cr     0.03535353    0.01035643   -3.49243176       6
Cr     0.04136056   -0.01555845    3.53545378       7
Ni    -0.01051239    1.73694812   -1.72909193       8
Ni     0.03045858    1.76772737    1.73257274       9
Ni    -1.74898288   -0.04487819   -1.73673531      10
Cr     1.80403570    1.76473046   -0.04726919      11
Co     0.07415497   -1.74460675   -1.65417953      12
Co    -1.74964411   -1.82167946   -0.00880441      13
Cr     1.76419221   -1.90470396   -0.04937811      14
Cr    -0.03818822   -1.89117885    1.61540914      15
Cr     1.61045766   -0.09895355    1.55391162      16
Cr     1.72434074   -0.04376578   -1.64012744      17
Cr    -1.59852752   -0.06062738    1.62376163      18
Co    -1.76695988    1.73170374    0.00307669      19
