          20
Lattice="  24.8920   0.0000   0.0000   0.0000  24.8920   0.0000   0.0000   0.0000  24.8920 " ConfE="      -5932.8854" DelE="          0.0000"
Ni    -1.26775626   -2.97316011    1.25908872       1
Cr    -3.08484198   -1.23268051    1.34461377       2
Ni    -1.27405078   -1.22986321    3.09535684       3
Co     2.52730184    0.48494193   -2.54835578       4
Ni     0.49586775    2.46715136   -2.46933913       5
Co     2.48348029    2.52244686   -0.49962447       6
Co     0.52706591   -3.08891112   -0.48705617       7
Cr    -2.97193610    0.52494746   -0.49218097       8
Ni     0.57620432    0.49897442    3.09026406       9
Ni    -1.48827228   -1.51767581   -0.74462129      10
Co     0.68473087   -1.44769458    1.48879007      11
Ni    -1.47067834    0.68430110    1.55608167      12
Ni     2.33542269   -1.24077066   -0.51589899      13
Ni     0.57827710   -1.26861959   -2.28085884      14
Ni     0.54956957    2.25658346    1.25906249      15
Co    -1.18877615    2.26101708   -0.52012625      16
Ni     2.32482722    0.52487827    1.23300830      17
Ni    -1.17891737    0.51847421   -2.31384888      18
Cr     1.09900454    0.89619418   -0.95663155      19
Cr     0.00000000    0.00000000    0.00000000      20
          20
Lattice="  24.8920   0.0000   0.0000   0.0000  24.8920   0.0000   0.0000   0.0000  24.8920 " ConfE="      -5932.8180" DelE="          0.0675"
Ni    -1.26008153   -2.99262899    1.26151045       1
Cr    -3.05864994   -1.24523780    1.35189354       2
Ni    -1.25636286   -1.25841017    3.10342311       3
Co     2.51287826    0.51536127   -2.50191665       4
Ni     0.52625777    2.42724827   -2.41903676       5
Co     2.43315094    2.43967709   -0.52573188       6
Co     0.53437394   -3.08153552   -0.48776336       7
Cr    -3.01355028    0.53731757   -0.48512958       8
Ni     0.55907079    0.48756196    3.04015125       9
Ni    -1.44446615   -1.48797871   -0.71312658      10
Co     0.69410982   -1.47284903    1.45710736      11
Ni    -1.70113044    0.69904359    1.73314581      12
Ni     2.34213587   -1.24409313   -0.51616190      13
Ni     0.57607745   -1.27599116   -2.27673953      14
Ni     0.52717342    2.27986583    1.28138205      15
Co    -1.21308467    2.27496993   -0.49630069      16
Ni     2.32454390    0.52399235    1.22766205      17
Ni    -1.18694568    0.51551078   -2.28803154      18
Cr     1.01495654    0.78438815   -0.91418624      19
Cr    -0.15166573    0.12058028    0.22925609      20
          20
Lattice="  24.8920   0.0000   0.0000   0.0000  24.8920   0.0000   0.0000   0.0000  24.8920 " ConfE="      -5937.1877" DelE="         -4.3023"
Ni    -1.20686202   -2.99326931    1.24422036       1
Cr    -2.96923174   -1.22131604    1.26611882       2
Ni    -1.19431052   -1.22563454    3.02389816       3
Co     2.41064082    0.54099761   -2.35479825       4
Ni     0.57843239    2.29594035   -2.31660382       5
Co     2.36455721    2.32055522   -0.54210041       6
Co     0.56835113   -3.04606895   -0.50474276       7
Cr    -3.01732440    0.52881387   -0.52464043       8
Ni     0.60044591    0.51707745    3.02659680       9
Ni    -1.17860473   -1.21312963   -0.53867569      10
Co     0.57840431   -1.23216521    1.24341773      11
Ni    -2.96331745    0.53988768    3.03316921      12
Ni     2.36363528   -1.22833862   -0.54162525      13
Ni     0.61038437   -1.24490613   -2.31479651      14
Ni     0.58906244    2.29605250    1.24595353      15
Co    -1.19600222    2.28417359   -0.53777730      16
Ni     2.35801670    0.53384490    1.22149756      17
Ni    -1.19066197    0.52709777   -2.32453426      18
Cr     0.63293701    0.52428638   -0.54135630      19
Cr    -1.19132846    0.59467951    1.21335118      20
