          18
Lattice="  24.8920   0.0000   0.0000   0.0000  24.8920   0.0000   0.0000   0.0000  24.8920 " ConfE="      -5936.5298" DelE="          0.0000"
Cr    -0.01090069    0.08978559   -3.48764450       1
Cr    -0.05243999   -3.40248824    0.11300158       2
Co    -0.06123432    0.12089638    3.63360295       3
Co    -0.05287024    3.69538067    0.07268032       4
Ni    -3.57701619    0.09747037    0.07515206       5
Co     3.49667527    0.12859386    0.12787765       6
Ni    -1.78695860    0.08421685   -1.70968236       7
Cr     1.68414200    0.04007864   -1.69228269       8
Co    -1.74642154   -1.72047171    0.09744578       9
Cr     1.68026644   -1.63800710    0.11864437      10
Ni    -0.04089535    1.87943366   -1.70782355      11
Co    -0.02716940   -1.67316314    1.88951123      12
Co    -0.03848519    1.85922731    1.81899395      13
Co    -1.78952909    1.88084885    0.07221850      14
Ni     1.72168463    1.86308592    0.05000288      15
Cr    -1.74447405    0.11723118    1.80545779      16
Co     1.71356609    0.09934658    1.84184030      17
Co     0.00000000    0.00000000    0.00000000      18
          18
Lattice="  24.8920   0.0000   0.0000   0.0000  24.8920   0.0000   0.0000   0.0000  24.8920 " ConfE="      -5936.1950" DelE="          0.3348"
Cr     0.00058820    0.05496780   -3.42082470       1
Cr    -0.03778888   -3.35518356    0.08951558       2
Co    -0.06391375    0.10335708    3.62276646       3
Co    -0.05310955    3.68309574    0.06564407       4
Ni    -3.63653919    0.11115348    0.07178712       5
Co     3.53667483    0.13402580    0.13064299       6
Ni    -1.90872069    0.12777073   -1.73844690       7
Cr     1.80972490    0.07741586   -1.73364445       8
Co    -1.94048983   -1.73458567    0.14040268       9
Cr     1.84213618   -1.69888095    0.18058620      10
Ni    -0.04372642    1.81103645   -1.67988339      11
Co    -0.04593873   -1.65685427    1.82237232      12
Co    -0.04551655    1.82203898    1.78875694      13
Co    -1.80197323    1.87251074    0.06580840      14
Ni     1.71265412    1.82321743    0.04005783      15
Cr    -1.68761915    0.11139846    1.68845251      16
Co     1.67974293    0.06856686    1.76668349      17
Co     0.00739583   -0.68094083   -0.59516571      18
          18
Lattice="  24.8920   0.0000   0.0000   0.0000  24.8920   0.0000   0.0000   0.0000  24.8920 " ConfE="      -5936.6372" DelE="         -0.1073"
Cr    -0.01441141    0.10852691   -3.53712342       1
Cr    -0.03145382   -3.45333422    0.12557766       2
Co    -0.06438115    0.11734060    3.64026820       3
Co    -0.05988233    3.69793965    0.07304891       4
Ni    -3.61165918    0.11370147    0.08129683       5
Co     3.51567842    0.13536303    0.13155675       6
Ni    -1.79100925    0.11017092   -1.67639108       7
Cr     1.69427590    0.05669210   -1.67124892       8
Co    -1.75623406   -1.64353824    0.13526762       9
Cr     1.66842079   -1.59504755    0.13184509      10
Ni    -0.03983798    1.82855268   -1.68466536      11
Co    -0.02006235   -1.63574631    1.82699513      12
Co    -0.04603463    1.85078939    1.81705536      13
Co    -1.78625805    1.86913724    0.08916614      14
Ni     1.69704883    1.83478569    0.05155710      15
Cr    -1.71517777    0.13584104    1.76959447      16
Co     1.68674859    0.09885495    1.79937599      17
Co     0.00227320   -1.60740600   -1.63158752      18
