          18
Lattice="  24.8920   0.0000   0.0000   0.0000  24.8920   0.0000   0.0000   0.0000  24.8920 " ConfE="      -5947.0856" DelE="          0.0000"
Cr    -0.14565554    0.08098476   -3.20036937       1
Ni     3.29992417    0.04679984    0.15653683       2
Co    -0.20585519    0.06454802    3.71299746       3
Cr    -3.86092420    0.07631099    0.17008921       4
Co    -0.21851517   -3.49352328    0.15810756       5
Cr    -0.22219945    3.68575563    0.19767204       6
Cr    -0.30522650   -1.76716035   -1.59190689       7
Co    -0.20094410    1.81981100   -1.53152222       8
Co     1.54808538   -1.72026044    0.14333560       9
Cr     1.61241276    1.82951081    0.15644197      10
Ni    -2.05204912    0.07882063   -1.55851703      11
Cr     1.57946512    0.03630113    1.97019971      12
Cr    -2.02431883    0.09254606    1.92119975      13
Co    -1.99253412   -1.68323287    0.18986699      14
Cr    -2.02137954    1.86790904    0.20194334      15
Ni    -0.21687532   -1.68804328    1.93755826      16
Ni    -0.19724133    1.80517495    1.92706552      17
Cr     0.00000000    0.00000000    0.00000000      18
          18
Lattice="  24.8920   0.0000   0.0000   0.0000  24.8920   0.0000   0.0000   0.0000  24.8920 " ConfE="      -5946.6249" DelE="          0.4607"
Cr    -0.19385094    0.07931629   -3.33398412       1
Ni     3.24477203    0.05011208    0.16648288       2
Co    -0.20023323    0.05817524    3.73076992       3
Cr    -3.80706425    0.08288296    0.15738224       4
Co    -0.23546741   -3.54631007    0.17499920       5
Cr    -0.23633396    3.73991520    0.23372140       6
Cr    -0.38080947   -1.93810488   -1.55933438       7
Co    -0.25075731    1.95188313   -1.55930909       8
Co     1.56306775   -1.83730976    0.18637348       9
Cr     1.57909571    1.92636557    0.20380247      10
Ni    -1.94919931    0.07242436   -1.55672522      11
Cr     1.51911578    0.01708911    1.93207470      12
Cr    -1.96095314    0.08761072    1.89908818      13
Co    -1.96044316   -1.67578350    0.18608508      14
Cr    -1.89033971    1.81469784    0.19205616      15
Ni    -0.20880817   -1.68938341    1.92525523      16
Ni    -0.18471594    1.81018367    1.94488942      17
Cr     0.65092077   -0.00778175   -0.76686030      18
          18
Lattice="  24.8920   0.0000   0.0000   0.0000  24.8920   0.0000   0.0000   0.0000  24.8920 " ConfE="      -5947.2203" DelE="         -0.1347"
Cr    -0.26978811    0.05887020   -3.35789812       1
Ni     3.35857231    0.03806119    0.18710619       2
Co    -0.20575187    0.06227237    3.73727524       3
Cr    -3.84490350    0.08051071    0.17984085       4
Co    -0.22512256   -3.52010521    0.15869371       5
Cr    -0.23699618    3.68379541    0.19490143       6
Cr    -0.34133823   -1.71665467   -1.55122597       7
Co    -0.23996424    1.79176191   -1.50670861       8
Co     1.50835989   -1.68912419    0.16866523       9
Cr     1.56282101    1.81137925    0.18751528      10
Ni    -2.02203981    0.08339860   -1.53712040      11
Cr     1.50687610    0.02549684    1.85685960      12
Cr    -1.97717678    0.08722612    1.90151688      13
Co    -1.97775991   -1.67285470    0.19390303      14
Cr    -2.00103959    1.85639870    0.21488234      15
Ni    -0.22844685   -1.68633845    1.94533226      16
Ni    -0.20935247    1.80901746    1.93963836      17
Cr     1.41121737    0.01692933   -1.46137831      18
