          18
Lattice="  24.8920   0.0000   0.0000   0.0000  24.8920   0.0000   0.0000   0.0000  24.8920 " ConfE="      -5949.9379" DelE="          0.0000"
Cr     0.01822552   -3.44237118    0.02992183       1
Cr     3.53035071   -0.17615389    0.02796239       2
Cr     0.00659549    3.52667429   -0.01507564       3
Co    -3.55788819    0.01646914    0.01759318       4
Cr     0.04448321    0.02752538   -3.53139948       5
Ni     0.00321821    0.00558385    3.56197414       6
Ni     0.02992998   -1.75001217   -1.75993464       7
Ni     0.00278832   -1.75197106    1.73446247       8
Ni     1.79337346   -0.02488412   -1.78748297       9
Ni     1.78926760   -0.06337325    1.75243609      10
Cr    -1.82499541   -1.76601989   -0.01409092      11
Ni     1.79122690    1.74081444    0.01066793      12
Cr    -1.76139815    1.77931032   -0.01600502      13
Ni    -1.77930085   -0.00382597   -1.78399107      14
Co    -1.77630380    0.02792349    1.75949110      15
Co     0.02805678    1.77825976   -1.75694207      16
Cr    -0.03390592    1.75237521    1.76052314      17
Co     0.00000000    0.00000000    0.00000000      18
          18
Lattice="  24.8920   0.0000   0.0000   0.0000  24.8920   0.0000   0.0000   0.0000  24.8920 " ConfE="      -5948.9902" DelE="          0.9478"
Cr     0.08438084   -3.35568975    0.00884293       1
Cr     3.43917599   -0.22058869    0.02266764       2
Cr     0.04037516    3.53264462   -0.00999842       3
Co    -3.54087778    0.00871506    0.01546657       4
Cr     0.01192604    0.04739703   -3.65217495       5
Ni    -0.00562008    0.01923938    3.64179792       6
Ni     0.01516467   -1.75495721   -1.97227909       7
Ni    -0.03913559   -1.76151852    1.92980686       8
Ni     1.79088139    0.02332333   -1.97187458       9
Ni     1.81351210   -0.01590372    1.94751933      10
Cr    -1.66039678   -1.67142876   -0.01351507      11
Ni     1.72964529    1.62094004    0.01972593      12
Cr    -1.64546009    1.66726641   -0.02119346      13
Ni    -1.73098951   -0.01489541   -1.79510185      14
Co    -1.71890812    0.03540556    1.74020093      15
Co     0.02354108    1.75157372   -1.75276080      16
Cr    -0.02254064    1.71202844    1.76973442      17
Co     0.90489855   -0.90411383   -0.00134177      18
          18
Lattice="  24.8920   0.0000   0.0000   0.0000  24.8920   0.0000   0.0000   0.0000  24.8920 " ConfE="      -5949.9538" DelE="         -0.0159"
Cr    -0.01891877   -3.49229817    0.03088146       1
Cr     3.55451095   -0.16276066    0.02977500       2
Cr     0.01777340    3.56507972   -0.01457589       3
Co    -3.57193208    0.02255644    0.01613067       4
Cr     0.02767595    0.02913735   -3.57635752       5
Ni    -0.00558232    0.01656628    3.58170337       6
Ni     0.00280129   -1.72834707   -1.76283168       7
Ni    -0.01645348   -1.72738684    1.72824002       8
Ni     1.76803957   -0.00563824   -1.80546842       9
Ni     1.75511390   -0.02758135    1.77091439      10
Cr    -1.77259913   -1.74809168   -0.01422481      11
Ni     1.74244577    1.69058532    0.01448017      12
Cr    -1.72191594    1.77129800   -0.01767103      13
Ni    -1.76056926   -0.00017353   -1.75461120      14
Co    -1.72547986    0.05581684    1.69567262      15
Co     0.00795847    1.76057873   -1.72046984      16
Cr    -0.05046533    1.76005946    1.74701665      17
Co     1.75998039   -1.77023186   -0.01447448      18
