          18
Lattice="  24.8920   0.0000   0.0000   0.0000  24.8920   0.0000   0.0000   0.0000  24.8920 " ConfE="      -5942.6277" DelE="          0.0000"
Co    -3.43634793    0.02155032   -0.07311813       1
Ni     0.06486861    3.51381295    0.01097339       2
Ni     3.63366440   -0.02974111   -0.00595645       3
Cr     0.08916714   -3.51078607   -0.00246408       4
Co     0.12186939   -0.03157445   -3.58647338       5
Ni     0.07501716   -0.00708815    3.55482474       6
Cr    -1.66999939   -0.02840804   -1.78178073       7
Cr    -1.70553711    0.06557717    1.69978613       8
Ni     0.05096995    1.75385094   -1.75610069       9
Cr    -0.00038641    1.68032253    1.71868130      10
Co    -1.69984653   -1.80427170   -0.01274964      11
Ni     1.85751153    1.75904303    0.01096357      12
Cr     1.79939301   -1.83218268   -0.01201695      13
Co     0.06756986   -1.78607328   -1.80472915      14
Co     0.03192838   -1.77261094    1.74140225      15
Ni     1.84883516   -0.01784462   -1.76257782      16
Co     1.78371995   -0.02745894    1.73597383      17
Co     0.00000000    0.00000000    0.00000000      18
          18
Lattice="  24.8920   0.0000   0.0000   0.0000  24.8920   0.0000   0.0000   0.0000  24.8920 " ConfE="      -5942.0111" DelE="          0.6166"
Co    -3.40648480    0.02271692   -0.07487276       1
Ni     0.06649840    3.51617271    0.00856147       2
Ni     3.63129008   -0.02178326   -0.01291406       3
Cr     0.09251043   -3.52961111   -0.01033844       4
Co     0.14087762   -0.04203802   -3.63295976       5
Ni     0.07711778   -0.00806901    3.59606230       6
Cr    -1.67656922   -0.09266867   -1.96584249       7
Cr    -1.77747416   -0.03009762    1.89070697       8
Ni     0.09848875    1.78695161   -1.86722726       9
Cr     0.02604205    1.70100680    1.81357996      10
Co    -1.66854371   -1.76841050   -0.03362006      11
Ni     1.80560755    1.74503595    0.00258177      12
Cr     1.72646169   -1.77487694   -0.01435862      13
Co     0.06831502   -1.76868786   -1.80462143      14
Co     0.02359341   -1.70768313    1.69313253      15
Ni     1.81851629   -0.01287223   -1.75735698      16
Co     1.72476446   -0.00533634    1.70583008      17
Co    -0.82487132    0.63627635   -0.00803617      18
          18
Lattice="  24.8920   0.0000   0.0000   0.0000  24.8920   0.0000   0.0000   0.0000  24.8920 " ConfE="      -5942.8086" DelE="         -0.1810"
Co    -3.49328544   -0.02527561   -0.05934295       1
Ni     0.08806904    3.55445877    0.00764459       2
Ni     3.63872407   -0.03303338   -0.00894148       3
Cr     0.11148791   -3.56234992   -0.00970638       4
Co     0.12872637   -0.03925062   -3.59925463       5
Ni     0.08606267   -0.01663456    3.58080264       6
Cr    -1.63191956   -0.08037293   -1.76478644       7
Cr    -1.64529884   -0.00658425    1.69915034       8
Ni     0.07943911    1.72999244   -1.76073161       9
Cr     0.03800362    1.64622532    1.71512570      10
Co    -1.64886256   -1.74173193   -0.02685747      11
Ni     1.82362827    1.75201754    0.00793403      12
Cr     1.77760612   -1.84442989   -0.02204121      13
Co     0.07515297   -1.77734054   -1.78236562      14
Co     0.04359792   -1.74632382    1.69372698      15
Ni     1.81646603   -0.03243449   -1.72602893      16
Co     1.72325850   -0.02368629    1.68145329      17
Co    -1.67213310    1.69432751   -0.02077225      18
