          18
Lattice="  24.8920   0.0000   0.0000   0.0000  24.8920   0.0000   0.0000   0.0000  24.8920 " ConfE="      -5949.2341" DelE="          0.0000"
Ni     0.01353463   -3.49815840   -0.01893883       1
Co    -0.03662771   -0.03292890   -3.48758316       2
Cr    -0.07224152    3.59159590    0.07895001       3
Ni     0.01193040    0.02242291    3.56278117       4
Cr    -3.54453286    0.03159234    0.00061272       5
Cr     3.42609084   -0.06530867    0.03153417       6
Co    -1.75053156   -1.76099570   -0.00506797       7
Co     1.76757518   -1.74190177   -0.01229571       8
Cr    -1.65469416   -0.08352947   -1.64094042       9
Co     1.71868967   -0.02995318   -1.81055954      10
Co     0.02246206   -1.77007191    1.83020524      11
Ni     0.00169426    1.84611547   -1.76402363      12
Co     0.00811502    1.79261262    1.77228607      13
Cr    -1.70433165    0.00539695    1.68911322      14
Co     1.77272124    0.00249613    1.81739647      15
Co    -1.78870394    1.81695471    0.01117505      16
Ni     1.75840114    1.78239257    0.01557282      17
Co     0.00000000    0.00000000    0.00000000      18
          18
Lattice="  24.8920   0.0000   0.0000   0.0000  24.8920   0.0000   0.0000   0.0000  24.8920 " ConfE="      -5948.6026" DelE="          0.6315"
Ni     0.01026289   -3.48092928   -0.03453900       1
Co    -0.03271175   -0.03213101   -3.42630860       2
Cr    -0.05926915    3.60253972    0.06352744       3
Ni     0.00277529    0.00268545    3.54465960       4
Cr    -3.63804811    0.03765877    0.06288554       5
Cr     3.50269289   -0.03857123    0.03999479       6
Co    -1.92761684   -1.83824123    0.01830107       7
Co     1.92400795   -1.78607260    0.03876243       8
Cr    -1.89369985    0.03986209   -1.66079368       9
Co     1.90769451    0.01977679   -1.84941498      10
Co     0.00566085   -1.71704621    1.71252876      11
Ni    -0.01310765    1.78126016   -1.71312113      12
Co     0.00821135    1.74802773    1.72096285      13
Cr    -1.53403541   -0.00368118    1.42949718      14
Co     1.77441082   -0.01241709    1.79238619      15
Co    -1.80189551    1.82271088    0.00126303      16
Ni     1.74326333    1.71528007    0.00123771      17
Co    -0.02382008   -0.87399841   -0.90037695      18
          18
Lattice="  24.8920   0.0000   0.0000   0.0000  24.8920   0.0000   0.0000   0.0000  24.8920 " ConfE="      -5949.3540" DelE="         -0.1199"
Ni     0.00914563   -3.53701572    0.01231122       1
Co    -0.03093550    0.01471460   -3.53207290       2
Cr    -0.06904115    3.62795696    0.08216825       3
Ni     0.01302730    0.01759249    3.57107070       4
Cr    -3.58255585    0.04449434    0.02204937       5
Cr     3.45923404   -0.05673674    0.04315345       6
Co    -1.74691124   -1.73764033    0.01994799       7
Co     1.76586042   -1.71439514    0.01764367       8
Cr    -1.65737224   -0.02990930   -1.57911073       9
Co     1.73613953    0.01099892   -1.77853106      10
Co     0.01687143   -1.73518864    1.79480573      11
Ni    -0.00645462    1.80615519   -1.73006068      12
Co     0.00344335    1.76214067    1.75176011      13
Cr    -1.59771144    0.02046520    1.57301996      14
Co     1.76101712    0.00385999    1.79928301      15
Co    -1.77517572    1.80331859    0.01707256      16
Ni     1.72448924    1.74488541    0.02179425      17
Co     0.00814971   -1.71279464   -1.74188304      18
