          18
Lattice="  24.8920   0.0000   0.0000   0.0000  24.8920   0.0000   0.0000   0.0000  24.8920 " ConfE="      -5949.9259" DelE="          0.0000"
Ni    -0.02112909    3.48941252   -0.02493451       1
Co    -3.51812423    0.01696623    0.05946254       2
Cr     0.02433641   -3.56613357    0.00920291       3
Co     3.58362337   -0.04630251    0.03575435       4
Cr    -0.02076739   -0.10539333   -3.55880613       5
Cr     0.08866765    0.10551993    3.48342470       6
Ni    -1.75986865    0.00434737   -1.76501391       7
Ni    -1.74909232    0.04891056    1.76285144       8
Ni    -0.02373452    1.72568011   -1.76660684       9
Ni    -1.75856998   -1.79322425    0.01305570      10
Ni     1.83306474    1.74847708   -0.00926660      11
Co     0.02759880    1.79122785    1.79947419      12
Ni     1.79019955   -0.04504518   -1.75990573      13
Co     1.81257809   -0.03853362    1.77615675      14
Co     1.79107210   -1.83226804    0.02491609      15
Cr    -0.01569336   -1.83632889   -1.78909564      16
Co     0.02619090   -1.80771869    1.80277119      17
Ni     0.00000000    0.00000000    0.00000000      18
          18
Lattice="  24.8920   0.0000   0.0000   0.0000  24.8920   0.0000   0.0000   0.0000  24.8920 " ConfE="      -5949.2731" DelE="          0.6528"
Ni    -0.03373620    3.43672836   -0.03168403       1
Co    -3.47675389    0.02870381    0.07322600       2
Cr     0.00347328   -3.56898732   -0.00643488       3
Co     3.57542164   -0.03937021    0.03912669       4
Cr     0.00997931   -0.11673231   -3.64823537       5
Cr     0.09045516    0.06288761    3.56306872       6
Ni    -1.75908778   -0.02395013   -1.91470220       7
Ni    -1.77236022   -0.03321043    1.92926452       8
Ni     0.03993663    1.74960156   -1.95008058       9
Ni    -1.69293346   -1.69528662    0.00461242      10
Ni     1.74667916    1.69326823   -0.00688881      11
Co     0.08307740    1.83423076    1.98908082      12
Ni     1.76594969   -0.04657413   -1.77624741      13
Co     1.75047683   -0.03841805    1.77253249      14
Co     1.72530195   -1.79008835    0.01667718      15
Cr    -0.01182291   -1.78615247   -1.78823664      16
Co     0.02421394   -1.80003820    1.81493055      17
Ni    -0.77779463    0.86496314    0.04319892      18
          18
Lattice="  24.8920   0.0000   0.0000   0.0000  24.8920   0.0000   0.0000   0.0000  24.8920 " ConfE="      -5950.0602" DelE="         -0.1343"
Ni     0.02112643    3.53120544   -0.02397079       1
Co    -3.54560779   -0.01970603    0.05441790       2
Cr     0.01724530   -3.58690886   -0.00192879       3
Co     3.59048939   -0.04867485    0.03274151       4
Cr    -0.00384072   -0.11872173   -3.59672197       5
Cr     0.08131506    0.10361153    3.53076284       6
Ni    -1.72412358   -0.02478906   -1.77260337       7
Ni    -1.70893923    0.00935679    1.76953370       8
Ni     0.01556642    1.68175810   -1.76054336       9
Ni    -1.70964896   -1.75087220    0.00600256      10
Ni     1.79319888    1.71388774    0.00127658      11
Co     0.04745162    1.77565928    1.80450653      12
Ni     1.75585972   -0.06520847   -1.73776842      13
Co     1.77348276   -0.04827614    1.75744397      14
Co     1.75118731   -1.81791892    0.01926897      15
Cr    -0.00446182   -1.82861716   -1.78147764      16
Co     0.03770868   -1.78887459    1.78504817      17
Ni    -1.72627047    1.73946026    0.00901097      18
