          18
Lattice="  24.8920   0.0000   0.0000   0.0000  24.8920   0.0000   0.0000   0.0000  24.8920 " ConfE="      -5938.0428" DelE="          0.0000"
Ni    -0.00403857   -3.45520859   -0.02473998       1
Ni    -0.00600259   -0.04329040   -3.47248550       2
Ni     0.01370405    0.02217513    3.60873362       3
Co    -3.53260935    0.05345195   -0.00428530       4
Cr     0.06279568    3.50274771   -0.01075759       5
Co     3.54449706    0.02131338    0.04492732       6
Ni     1.77636620   -1.75907093    0.02525087       7
Ni     1.77084692   -0.01579029   -1.72835464       8
Ni     0.02436090   -1.76185492    1.81713660       9
Ni    -1.75378404    0.00010666    1.77634256      10
Ni    -0.00111800    1.78208823    1.82074523      11
Ni     1.78400561    0.01716344    1.82008736      12
Co    -1.78117424   -1.69097362   -0.10113230      13
Cr    -1.77643470   -0.03494190   -1.70865372      14
Co    -0.07641163    1.80357033   -1.75006306      15
Cr    -1.75613750    1.78275256   -0.00110867      16
Co     1.71995455    1.83082165    0.02995335      17
Ni     0.00000000    0.00000000    0.00000000      18
          18
Lattice="  24.8920   0.0000   0.0000   0.0000  24.8920   0.0000   0.0000   0.0000  24.8920 " ConfE="      -5937.3872" DelE="          0.6556"
Ni    -0.00936481   -3.41267458   -0.03527973       1
Ni    -0.00746244   -0.04812725   -3.41537118       2
Ni     0.01049764    0.01970509    3.60217720       3
Co    -3.57490835    0.05009260    0.01505511       4
Cr     0.06286411    3.52115879   -0.01834333       5
Co     3.59260897    0.03647969    0.05994277       6
Ni     1.88696382   -1.76673940    0.07035701       7
Ni     1.90666826    0.02919212   -1.73714705       8
Ni     0.02065251   -1.71898980    1.74513637       9
Ni    -1.74496697   -0.00308516    1.73322801      10
Ni    -0.01198628    1.74590985    1.76717445      11
Ni     1.78438999    0.02390629    1.80043761      12
Co    -1.98400168   -1.79282358    0.02586219      13
Cr    -1.97643788    0.03695611   -1.77101887      14
Co    -0.09006327    1.74103357   -1.67544432      15
Cr    -1.73289577    1.73587207   -0.00981085      16
Co     1.69907867    1.79024712    0.02600690      17
Ni    -0.07691943   -0.78524361   -0.80308730      18
          18
Lattice="  24.8920   0.0000   0.0000   0.0000  24.8920   0.0000   0.0000   0.0000  24.8920 " ConfE="      -5938.0428" DelE="          0.0001"
Ni     0.01046985   -3.50588917    0.02279947       1
Ni     0.00477119   -0.00190970   -3.53474202       2
Ni     0.01116046    0.02529741    3.61765323       3
Co    -3.56618381    0.05478933    0.00148682       4
Cr     0.06860220    3.52331481   -0.00650877       5
Co     3.56464917    0.02669026    0.05516594       6
Ni     1.77195941   -1.72713739    0.05611867       7
Ni     1.76384212    0.01155509   -1.69997728       8
Ni     0.02421229   -1.73627741    1.78916465       9
Ni    -1.72329544    0.01161242    1.73056659      10
Ni    -0.00841216    1.76818470    1.79710024      11
Ni     1.76874630    0.02675845    1.80602585      12
Co    -1.77298353   -1.66356410   -0.05745791      13
Cr    -1.74607657   -0.00745565   -1.66467464      14
Co    -0.09054077    1.71494960   -1.68141471      15
Cr    -1.72952805    1.76736507   -0.00260369      16
Co     1.68707957    1.80849543    0.04613643      17
Ni     0.02597415   -1.76706380   -1.73464678      18
