          18
Lattice="  24.8920   0.0000   0.0000   0.0000  24.8920   0.0000   0.0000   0.0000  24.8920 " ConfE="      -5928.2473" DelE="          0.0000"
Ni    -3.52854038    0.06027532    0.01241760       1
Ni     0.00321831    3.62504240    0.02134904       2
Ni     3.59221208    0.08854897    0.00897357       3
Ni     0.04086663   -3.47541311    0.01487145       4
Cr    -0.06554617    0.05556274   -3.51471470       5
Ni     0.00176315    0.11863540    3.53952651       6
Co    -1.76818335    0.11633483   -1.73846430       7
Ni    -1.76139071    0.11664673    1.70728882       8
Ni    -0.01390062    1.84553825   -1.68831646       9
Co     0.02172158    1.82520513    1.69991282      10
Co    -1.75186478   -1.75781867    0.00266563      11
Cr     1.81793160    1.84102729    0.06030592      12
Co     1.79166842   -1.66508696    0.00165449      13
Co     0.00191064   -1.69393185   -1.78218140      14
Co     0.01524318   -1.69129894    1.78436740      15
Ni     1.78843333    0.08969254   -1.76645110      16
Co     1.78404612    0.10621685    1.75234152      17
Cr     0.00000000    0.00000000    0.00000000      18
          18
Lattice="  24.8920   0.0000   0.0000   0.0000  24.8920   0.0000   0.0000   0.0000  24.8920 " ConfE="      -5927.0581" DelE="          1.1892"
Ni    -3.47715168    0.01368572    0.03111186       1
Ni    -0.01238082    3.57477845    0.01197079       2
Ni     3.58444467    0.10608991    0.00896623       3
Ni     0.03091617   -3.47762850    0.01649396       4
Cr    -0.05595908    0.05355746   -3.62117473       5
Ni     0.00119135    0.12395885    3.58072948       6
Co    -1.76945599    0.04480521   -1.86895132       7
Ni    -1.81018617    0.02516826    1.89768940       8
Ni     0.02480437    1.88890862   -1.85791205       9
Co     0.00120809    1.87904435    1.81824292      10
Co    -1.69950357   -1.70216140    0.00729542      11
Cr     1.77583679    1.83834511    0.03954447      12
Co     1.74137423   -1.61061195   -0.00047005      13
Co    -0.00336641   -1.65902122   -1.78065531      14
Co     0.00902819   -1.64814433    1.76435822      15
Ni     1.71348364    0.11878508   -1.73172540      16
Co     1.70848976    0.16857023    1.68632629      17
Cr    -0.84211448    0.84373582    0.02250646      18
          18
Lattice="  24.8920   0.0000   0.0000   0.0000  24.8920   0.0000   0.0000   0.0000  24.8920 " ConfE="      -5927.7337" DelE="          0.5136"
Ni    -3.56389281    0.03424639   -0.00030861       1
Ni     0.02475646    3.66612343    0.02233686       2
Ni     3.61355133    0.09019191    0.01684203       3
Ni     0.03906383   -3.48640842    0.00990183       4
Cr    -0.05448054    0.04786622   -3.53241310       5
Ni     0.00357044    0.12063827    3.55171063       6
Co    -1.74852663    0.08545628   -1.74667103       7
Ni    -1.73371741    0.07713796    1.70177390       8
Ni     0.03041873    1.81459358   -1.67060867       9
Co     0.02058799    1.83078989    1.69064056      10
Co    -1.71393137   -1.71527161   -0.00934903      11
Cr     1.79687244    1.82510899    0.10316881      12
Co     1.78085191   -1.64893047    0.00597496      13
Co     0.01881426   -1.67992592   -1.78207114      14
Co     0.02857832   -1.68437882    1.76790011      15
Ni     1.76571134    0.08958077   -1.70910126      16
Co     1.75432120    0.12606325    1.71351164      17
Cr    -1.79348062    1.84138675   -0.01446026      18
