          18
Lattice="  24.8920   0.0000   0.0000   0.0000  24.8920   0.0000   0.0000   0.0000  24.8920 " ConfE="      -5928.2824" DelE="          0.0000"
Co    -0.07838452    0.03453339    3.46081122       1
Cr     3.44801338    0.00770218   -0.01703887       2
Cr    -0.12042506    0.01042948   -3.57717626       3
Cr    -3.60501876    0.06247291   -0.02772414       4
Ni    -0.04268343   -3.56276601   -0.02689510       5
Co    -0.05265882    3.58530880   -0.04589829       6
Ni    -0.01701254   -1.75767387    1.73379791       7
Cr     0.02883267    1.74749113    1.78028191       8
Cr     1.74206422   -1.75364362   -0.06626150       9
Cr     1.71531268    1.76087809    0.02416687      10
Cr    -1.82891444    0.02184655    1.75478577      11
Ni     1.73376147    0.01585068   -1.85644647      12
Co    -1.84689987    0.01084328   -1.80619291      13
Cr    -1.84500524   -1.75720727   -0.05251490      14
Cr    -1.79797638    1.77407196   -0.04129763      15
Cr    -0.05912765   -1.77603260   -1.84228723      16
Co    -0.05484358    1.77316235   -1.81091789      17
Ni     0.00000000    0.00000000    0.00000000      18
          18
Lattice="  24.8920   0.0000   0.0000   0.0000  24.8920   0.0000   0.0000   0.0000  24.8920 " ConfE="      -5927.8195" DelE="          0.4629"
Co    -0.06633291   -0.00447195    3.52023987       1
Cr     3.37277711    0.02941337    0.00319137       2
Cr    -0.10803252    0.01083437   -3.64191332       3
Cr    -3.54144113    0.07342030   -0.00763438       4
Ni    -0.04975958   -3.61569083   -0.03079430       5
Co    -0.09047675    3.64209662   -0.06726833       6
Ni    -0.01281629   -1.89985805    1.80255800       7
Cr    -0.12516415    2.03198501    1.93414917       8
Cr     1.63392225   -1.78840765   -0.10644791       9
Cr     1.61346552    1.94411262   -0.18877586      10
Cr    -1.66477661    0.00793885    1.81791736      11
Ni     1.69332208    0.01827385   -1.85388367      12
Co    -1.81272574    0.01540532   -1.83832278      13
Cr    -1.54610308   -1.53084676   -0.04431372      14
Cr    -1.52026438    1.57652863   -0.00534396      15
Cr    -0.02954894   -1.76559641   -1.87131534      16
Co    -0.06327906    1.76363695   -1.83632488      17
Ni     0.99454864    0.18000194    1.18290922      18
          18
Lattice="  24.8920   0.0000   0.0000   0.0000  24.8920   0.0000   0.0000   0.0000  24.8920 " ConfE="      -5928.2360" DelE="          0.0464"
Co    -0.09216585    0.01636687    3.54841213       1
Cr     3.46439607    0.00021240   -0.06130351       2
Cr    -0.12175013    0.01635909   -3.64963330       3
Cr    -3.57226893    0.07431118   -0.02113755       4
Ni    -0.03711487   -3.56803067   -0.02808136       5
Co    -0.06521513    3.62494551   -0.05956273       6
Ni    -0.02850592   -1.77005613    1.76393341       7
Cr    -0.00686035    1.80547238    1.79305906       8
Cr     1.59552394   -1.64467469   -0.08201511       9
Cr     1.56348394    1.71720113   -0.03964007      10
Cr    -1.75492212    0.02072201    1.79519490      11
Ni     1.67231865    0.02577043   -1.84797529      12
Co    -1.81883896    0.01694356   -1.84358017      13
Cr    -1.60579979   -1.54192028   -0.06614383      14
Cr    -1.56502165    1.58079909   -0.03260118      15
Cr    -0.04640843   -1.77004593   -1.88164003      16
Co    -0.06594534    1.77143485   -1.83126169      17
Ni     1.66368387    0.02910611    1.73148354      18
