          18
Lattice="  24.8920   0.0000   0.0000   0.0000  24.8920   0.0000   0.0000   0.0000  24.8920 " ConfE="      -5949.7995" DelE="          0.0000"
Ni    -0.10942009   -0.04843647    3.49222837       1
Ni     3.36620065   -0.01552584   -0.02808267       2
Co    -0.12348001   -0.03250955   -3.59620633       3
Co    -3.66479675   -0.02539836   -0.08844644       4
Ni    -0.09127023   -3.58074500   -0.04490535       5
Co    -0.06500807    3.51981559   -0.02682424       6
Ni    -0.06614804   -1.76835603    1.69916584       7
Co    -0.03392607    1.69565487    1.71001963       8
Cr     1.64982448   -1.84014060   -0.10675382       9
Cr     1.63229616    1.81148466   -0.00730127      10
Ni    -1.89623406   -0.04765084    1.72337895      11
Ni     1.67299661    0.00232160   -1.84177581      12
Cr    -1.83777635   -0.01319012   -1.89027312      13
Ni    -1.84836186   -1.77892514   -0.05863159      14
Ni    -1.83957569    1.72988260   -0.04893105      15
Co    -0.07279080   -1.75470106   -1.80125694      16
Ni    -0.08493102    1.75668391   -1.82993679      17
Cr     0.00000000    0.00000000    0.00000000      18
          18
Lattice="  24.8920   0.0000   0.0000   0.0000  24.8920   0.0000   0.0000   0.0000  24.8920 " ConfE="      -5949.2231" DelE="          0.5764"
Ni    -0.09832519   -0.05444840    3.45322680       1
Ni     3.37531473   -0.01680602   -0.02693655       2
Co    -0.11750838   -0.02771663   -3.59234771       3
Co    -3.66409298   -0.02642227   -0.08049284       4
Ni    -0.10449268   -3.61527423   -0.04897447       5
Co    -0.06658578    3.55992164   -0.01705030       6
Ni    -0.13489343   -1.88084541    1.73897946       7
Co    -0.09629610    1.80766842    1.76754697       8
Cr     1.64879278   -1.92447313   -0.11483821       9
Cr     1.68157550    1.93642379   -0.04450971      10
Ni    -1.83484625   -0.04833599    1.69418782      11
Ni     1.65211735    0.00066453   -1.76867401      12
Cr    -1.79230455   -0.01728920   -1.85581850      13
Ni    -1.82990883   -1.77327032   -0.05170005      14
Ni    -1.79709985    1.70414342   -0.03790477      15
Co    -0.07586631   -1.71666525   -1.75039115      16
Ni    -0.07259611    1.73387167   -1.76807917      17
Cr     0.82375325   -0.00184392    0.76582073      18
          18
Lattice="  24.8920   0.0000   0.0000   0.0000  24.8920   0.0000   0.0000   0.0000  24.8920 " ConfE="      -5949.8161" DelE="         -0.0166"
Ni    -0.12499755   -0.05262974    3.51666703       1
Ni     3.45001720   -0.01098884   -0.06176187       2
Co    -0.12757290   -0.03178155   -3.61411721       3
Co    -3.68827028   -0.02686227   -0.09098354       4
Ni    -0.10408775   -3.60068757   -0.05044373       5
Co    -0.07497637    3.54814403   -0.03385219       6
Ni    -0.10841079   -1.77218903    1.67403794       7
Co    -0.05343281    1.69262940    1.69211062       8
Cr     1.63527476   -1.82164849   -0.09991009       9
Cr     1.61758278    1.79228826   -0.00641572      10
Ni    -1.87492049   -0.04773282    1.71251180      11
Ni     1.64133097    0.00321795   -1.76678596      12
Cr    -1.81139789   -0.02535553   -1.88049712      13
Ni    -1.85240179   -1.76683054   -0.06497946      14
Ni    -1.82083957    1.69585724   -0.05871722      15
Co    -0.08543940   -1.72724671   -1.77256596      16
Ni    -0.08983537    1.73408087   -1.80115170      17
Cr     1.60856582   -0.03419787    1.61345800      18
