          18
Lattice="  24.8920   0.0000   0.0000   0.0000  24.8920   0.0000   0.0000   0.0000  24.8920 " ConfE="      -5923.1914" DelE="          0.0000"
Ni    -3.48505333    0.03168574    0.04134233       1
Co     0.04952339    0.02865109   -3.42145285       2
Cr     3.61858415   -0.01657664    0.03747328       3
Co     0.04258768    0.06286813    3.62264864       4
Ni     0.02685216   -3.50520994    0.07688002       5
Co     0.00652413    3.55074166    0.06389260       6
Co    -1.70081181   -1.69314354    0.07115331       7
Co    -1.71982787    1.76139553   -0.01710609       8
Co     0.03953320   -1.67452839   -1.64980470       9
Cr     0.04616547    1.70968335   -1.73016535      10
Cr    -1.70105441    0.06696443    1.86037687      11
Co     1.86276020    0.02533980   -1.67669061      12
Co     1.77397074    0.03299746    1.79762179      13
Cr     0.00359605   -1.73157211    1.88013469      14
Cr    -0.00270788    1.82284096    1.83486394      15
Cr     1.83870375   -1.75628435    0.06946880      16
Ni     1.84497611    1.80149531    0.08238770      17
Cr     0.00000000    0.00000000    0.00000000      18
          18
Lattice="  24.8920   0.0000   0.0000   0.0000  24.8920   0.0000   0.0000   0.0000  24.8920 " ConfE="      -5922.6468" DelE="          0.5447"
Ni    -3.45884915    0.03061697    0.04047066       1
Co     0.05974430    0.02081057   -3.42169831       2
Cr     3.60229120   -0.02532709    0.00706559       3
Co     0.03273718    0.06341312    3.63313185       4
Ni     0.03050341   -3.55713018    0.09620335       5
Co     0.01111292    3.62031416    0.08130128       6
Co    -1.73180337   -1.80324782    0.10194503       7
Co    -1.73670531    1.87740862    0.05883758       8
Co     0.09913642   -1.83775606   -1.68896426       9
Cr     0.12434572    1.87271773   -1.68931546      10
Cr    -1.71396709    0.07054108    1.82708355      11
Co     1.74917092    0.02151075   -1.62393194      12
Co     1.73735817    0.03057797    1.75472301      13
Cr     0.00185165   -1.59848764    1.76021536      14
Cr    -0.01455914    1.70378303    1.71760787      15
Cr     1.72373742   -1.67859844    0.04886931      16
Ni     1.83125830    1.80819604    0.07618325      17
Cr    -0.91602161    0.00378365   -0.96309608      18
          18
Lattice="  24.8920   0.0000   0.0000   0.0000  24.8920   0.0000   0.0000   0.0000  24.8920 " ConfE="      -5923.1564" DelE="          0.0350"
Ni    -3.52782450    0.02942859    0.08038453       1
Co     0.08247313    0.01288553   -3.48637251       2
Cr     3.61696541   -0.02185984    0.02380530       3
Co     0.04298923    0.06026468    3.65744735       4
Ni     0.03348714   -3.52222481    0.09081396       5
Co     0.00630222    3.58613184    0.06994278       6
Co    -1.67515455   -1.68071715    0.10570616       7
Co    -1.69128668    1.76884897    0.03548928       8
Co     0.05167283   -1.66444448   -1.61605335       9
Cr     0.07988109    1.69913969   -1.66920477      10
Cr    -1.65733951    0.06520421    1.79923310      11
Co     1.78315355    0.02612373   -1.62778066      12
Co     1.73480872    0.01972715    1.76605461      13
Cr     0.02930933   -1.65583290    1.83767042      14
Cr     0.00020432    1.77118696    1.81528762      15
Cr     1.80872693   -1.72724250    0.07667002      16
Ni     1.82967613    1.79735611    0.09335651      17
Cr    -1.66987604    0.03050434   -1.64942811      18
