          18
Lattice="  24.8920   0.0000   0.0000   0.0000  24.8920   0.0000   0.0000   0.0000  24.8920 " ConfE="      -5936.7924" DelE="          0.0000"
Ni    -3.55948459   -0.01594115   -0.01369060       1
Co    -0.02514147   -3.49199420   -0.04468126       2
Co     3.57870262   -0.00501348    0.00021122       3
Ni     0.01316434    3.54742626   -0.02653432       4
Co     0.02922138   -0.01170572   -3.55000435       5
Ni     0.00516796   -0.00713339    3.50808291       6
Ni    -1.75682585   -0.05688838   -1.74283476       7
Co    -1.76718520   -0.02816873    1.72997949       8
Cr    -0.01758169   -1.76441513   -1.73090259       9
Cr    -0.03701678   -1.77553941    1.64748243      10
Co    -1.74733276    1.76715445   -0.00413211      11
Ni     1.82592679   -1.73898320   -0.05396719      12
Cr     1.79652176    1.76927911   -0.02822104      13
Co     0.03779060    1.73347208   -1.75105551      14
Cr    -0.01095178    1.75726720    1.74714784      15
Co     1.80384916    0.01048471   -1.78957640      16
Co     1.78192619   -0.02522640    1.74866343      17
Cr     0.00000000    0.00000000    0.00000000      18
          18
Lattice="  24.8920   0.0000   0.0000   0.0000  24.8920   0.0000   0.0000   0.0000  24.8920 " ConfE="      -5935.8516" DelE="          0.9408"
Ni    -3.55716038   -0.04751247   -0.01942112       1
Co     0.00181444   -3.47778101   -0.03348493       2
Co     3.59864381   -0.02996730    0.03057153       3
Ni    -0.01208196    3.48170545   -0.03120773       4
Co     0.03421937    0.03671007   -3.54405858       5
Ni    -0.00003674    0.03998588    3.58683621       6
Ni    -1.85860549    0.00608937   -1.87369099       7
Co    -1.81995184    0.02614685    1.86372996       8
Cr     0.07963530   -1.66674951   -1.92557813       9
Cr     0.08285923   -1.73703493    1.92328811      10
Co    -1.84512203    1.71126265    0.04561760      11
Ni     1.67380891   -1.65701563   -0.03551000      12
Cr     1.90019569    1.80161768   -0.00522274      13
Co     0.10389560    1.17256566   -1.13721627      14
Cr    -0.00994624    1.57317886    1.60014345      15
Co     1.94263816   -0.05252114   -1.83654993      16
Co     1.72952538    0.00770084    1.73346189      17
Cr    -1.06430308   -1.09052406    0.02273639      18
          18
Lattice="  24.8920   0.0000   0.0000   0.0000  24.8920   0.0000   0.0000   0.0000  24.8920 " ConfE="      -5937.0747" DelE="         -0.2823"
Ni    -3.56063750    0.00148087   -0.02803235       1
Co     0.01683033   -3.56239857   -0.03769781       2
Co     3.57343246   -0.00334789   -0.00546365       3
Ni     0.00454364    3.48853853   -0.05803220       4
Co     0.03350879    0.03568833   -3.58405279       5
Ni     0.00991222    0.01029916    3.53752911       6
Ni    -1.72680081    0.03247454   -1.80126714       7
Co    -1.77336531    0.01082881    1.76789671       8
Cr     0.03419903   -1.75441517   -1.81006399       9
Cr     0.01801917   -1.75028164    1.73335919      10
Co    -1.75386159    1.75376764   -0.00856408      11
Ni     1.78090823   -1.72153132   -0.05879915      12
Cr     1.74383052    1.75343252   -0.05336862      13
Co     0.02447042    0.08341170   -0.03065278      14
Cr    -0.00975780    1.76797465    1.78025655      15
Co     1.75486155    0.07814137   -1.78365361      16
Co     1.78065658   -0.01728482    1.75786850      17
Cr    -1.69529575   -1.70623862   -0.04384808      18
