          18
Lattice="  24.8920   0.0000   0.0000   0.0000  24.8920   0.0000   0.0000   0.0000  24.8920 " ConfE="      -5940.7458" DelE="          0.0000"
Ni     0.01456716   -3.54224988    0.08484432       1
Cr    -3.48613568    0.05097285   -0.09683289       2
Co     0.00178887    0.03145930   -3.46020911       3
Ni     0.01870159    3.60334937    0.06159128       4
Co     0.01783847    0.02722027    3.66314665       5
Cr     3.59827047    0.00720475    0.07567261       6
Ni    -1.75567058   -1.76565687    0.04029555       7
Cr    -0.04124964   -1.71175271   -1.74293593       8
Cr    -1.72182244    1.71880523   -0.05379728       9
Cr     0.03981972    1.75275672   -1.72625898      10
Cr     0.05474111   -1.65235041    1.87088018      11
Co    -1.79586004    0.01768708    1.84234504      12
Cr     1.79320868   -1.75823427    0.08743108      13
Co     1.83320222    0.01829156   -1.69062170      14
Cr     0.04882058    1.68075590    1.82693634      15
Cr     1.81544715    1.81316299    0.06541328      16
Co     1.83309393   -0.00666448    1.84680877      17
Co     0.00000000    0.00000000    0.00000000      18
          18
Lattice="  24.8920   0.0000   0.0000   0.0000  24.8920   0.0000   0.0000   0.0000  24.8920 " ConfE="      -5940.0735" DelE="          0.6723"
Ni     0.02087122   -3.59975845    0.11354284       1
Cr    -3.49999266    0.02214758   -0.15139489       2
Co     0.00992002    0.02730164   -3.44840327       3
Ni     0.02400164    3.65161466    0.09127214       4
Co     0.01136923    0.03281540    3.63687340       5
Cr     3.62440721   -0.00940167    0.03483067       6
Ni    -1.78317917   -1.88846276    0.10243158       7
Cr    -0.00636894   -1.86780035   -1.71138735       8
Cr    -1.86013202    1.86951546    0.05316423       9
Cr     0.11901291    1.93605398   -1.65332504      10
Cr     0.05304523   -1.56794582    1.77618424      11
Co    -1.80729689    0.00725114    1.76167464      12
Cr     1.72770193   -1.70864907    0.07044561      13
Co     1.69456346    0.02178010   -1.60747624      14
Cr     0.03463787    1.51752513    1.58025718      15
Cr     1.84757407    1.77662117    0.05978180      16
Co     1.86452273   -0.00707368    1.84515925      17
Co    -1.02830094    0.07659916   -1.07589537      18
          18
Lattice="  24.8920   0.0000   0.0000   0.0000  24.8920   0.0000   0.0000   0.0000  24.8920 " ConfE="      -5940.7154" DelE="          0.0304"
Ni     0.01219483   -3.55710447    0.09611168       1
Cr    -3.59255033    0.02390422    0.01891765       2
Co     0.04094871    0.02634916   -3.49942948       3
Ni     0.02146218    3.61245165    0.06962710       4
Co     0.02565061    0.03035363    3.65235608       5
Cr     3.65411616    0.00105083    0.07262391       6
Ni    -1.75371061   -1.76154795    0.08367189       7
Cr    -0.00583326   -1.64292130   -1.62499196       8
Cr    -1.76916708    1.74414243    0.05013696       9
Cr     0.02898467    1.68206084   -1.58820955      10
Cr     0.07466447   -1.57041951    1.77909577      11
Co    -1.79841827    0.01467127    1.82395634      12
Cr     1.77845311   -1.72178949    0.09010733      13
Co     1.77976415    0.02569543   -1.62306859      14
Cr     0.06212639    1.52500055    1.62779500      15
Cr     1.85733923    1.79925396    0.05717876      16
Co     1.86851722   -0.00680760    1.84145626      17
Co    -1.76059999    0.01199241   -1.69596867      18
