          18
Lattice="  24.8920   0.0000   0.0000   0.0000  24.8920   0.0000   0.0000   0.0000  24.8920 " ConfE="      -5933.6852" DelE="          0.0000"
Ni    -3.47826433    0.00943669   -0.03220081       1
Co    -0.00505218    3.50924379   -0.06844687       2
Cr     3.63066099   -0.04045857   -0.04256554       3
Ni     0.07605395   -3.60596843   -0.05331870       4
Co     0.08130229   -0.05675868    3.47868337       5
Cr     0.03685522   -0.05159687   -3.59122633       6
Co    -1.65827767   -0.01863632    1.66620528       7
Ni    -1.73764891   -0.00554533   -1.77506986       8
Ni     0.03748402    1.76888500    1.70652013       9
Co     0.00889261    1.72720466   -1.79902157      10
Cr    -1.76770152   -1.80657067   -0.04522365      11
Ni     1.85368113    1.72070385   -0.05042139      12
Cr     1.87446998   -1.80195967   -0.08233325      13
Ni     0.03575686   -1.82857850    1.70183775      14
Ni     0.03039277   -1.81419814   -1.78477291      15
Cr     1.79413156   -0.04276864    1.72149218      16
Cr     1.79936359   -0.04244745   -1.85455963      17
Cr     0.00000000    0.00000000    0.00000000      18
          18
Lattice="  24.8920   0.0000   0.0000   0.0000  24.8920   0.0000   0.0000   0.0000  24.8920 " ConfE="      -5933.1709" DelE="          0.5143"
Ni    -3.38868734    0.02864779   -0.04283923       1
Co    -0.02113511    3.45623623   -0.07716358       2
Cr     3.62922726   -0.03090917   -0.05412625       3
Ni     0.05911311   -3.61789707   -0.06106147       4
Co     0.11036593   -0.05833732    3.52312352       5
Cr     0.07480284   -0.09975673   -3.68653277       6
Co    -1.68655406   -0.01618708    1.79565721       7
Ni    -1.74238020   -0.06811443   -1.93969527       8
Ni     0.09065718    1.80468979    1.84086819       9
Co     0.07093242    1.70825446   -1.94978240      10
Cr    -1.76827539   -1.78602674   -0.05851161      11
Ni     1.79395194    1.72335041   -0.06204763      12
Cr     1.80785791   -1.77160102   -0.08011423      13
Ni     0.00001322   -1.76104816    1.63284409      14
Ni     0.01238017   -1.77446904   -1.76185890      15
Cr     1.72452816   -0.04055042    1.56719842      16
Cr     1.74374645   -0.04739221   -1.76993730      17
Cr    -0.70765737    0.77665365   -0.04112276      18
          18
Lattice="  24.8920   0.0000   0.0000   0.0000  24.8920   0.0000   0.0000   0.0000  24.8920 " ConfE="      -5933.7889" DelE="         -0.1036"
Ni    -3.53985510   -0.03375223   -0.02850387       1
Co     0.02540886    3.54192994   -0.05844585       2
Cr     3.65691309   -0.03868065   -0.04427237       3
Ni     0.07882774   -3.60872323   -0.04723045       4
Co     0.10097543   -0.06421929    3.50824231       5
Cr     0.05272458   -0.07139492   -3.60752340       6
Co    -1.65671236   -0.03581403    1.66372177       7
Ni    -1.71908079   -0.05821392   -1.78661842       8
Ni     0.07789942    1.73019995    1.71323504       9
Co     0.03583878    1.69451765   -1.80948082      10
Cr    -1.73701750   -1.73478880    0.00024589      11
Ni     1.81817496    1.67917934   -0.05590322      12
Cr     1.85421328   -1.76004911   -0.06838321      13
Ni     0.05205130   -1.78923352    1.67264303      14
Ni     0.04366452   -1.78429500   -1.74073858      15
Cr     1.82043226   -0.05898548    1.67408433      16
Cr     1.81189254   -0.06875557   -1.83203627      17
Cr    -1.62649886    1.59054241   -0.00561315      18
