          18
Lattice="  24.8920   0.0000   0.0000   0.0000  24.8920   0.0000   0.0000   0.0000  24.8920 " ConfE="      -5947.2253" DelE="          0.0000"
Cr    -3.60169454    0.04867837   -0.03327948       1
Co     0.00277429   -0.00087041    3.47932855       2
Ni     3.53256667   -0.01711662   -0.04750690       3
Cr    -0.07317564    0.00507157   -3.61131538       4
Co    -0.01710299   -3.54113530   -0.07247968       5
Cr    -0.03636016    3.59078596   -0.03621283       6
Ni    -1.80709652   -1.72290620    0.03408779       7
Cr    -1.81890747    1.76737938    0.00631395       8
Ni    -0.02037208   -1.75315670    1.74555673       9
Ni    -0.02965622    1.74957461    1.74306599      10
Co    -1.82314143    0.02354637   -1.82188274      11
Cr     1.79419548   -0.02123069    1.76289992      12
Cr     1.72148469   -0.00838585   -1.85805424      13
Cr    -0.11770579   -1.76684375   -1.81558311      14
Co    -0.04699870    1.76230708   -1.79034922      15
Co     1.73967875   -1.76738148   -0.06725532      16
Cr     1.78587244    1.77301593   -0.04783883      17
Cr     0.00000000    0.00000000    0.00000000      18
          18
Lattice="  24.8920   0.0000   0.0000   0.0000  24.8920   0.0000   0.0000   0.0000  24.8920 " ConfE="      -5946.4100" DelE="          0.8153"
Cr    -3.58572030    0.04771677    0.04105628       1
Co    -0.02962107   -0.00143253    3.40550142       2
Ni     3.54009693   -0.01410833   -0.03423836       3
Cr    -0.09307133    0.01131693   -3.56892757       4
Co    -0.00276880   -3.62021887   -0.09974709       5
Cr    -0.02388863    3.66773250   -0.05336513       6
Ni    -1.86793740   -1.94781525   -0.06160585       7
Cr    -1.81964095    1.90350628   -0.03700466       8
Ni    -0.01404939   -1.87834706    1.74176276       9
Ni     0.00133332    1.89223389    1.77158444      10
Co    -1.83615327    0.01048809   -1.71805832      11
Cr     1.70175353   -0.02728892    1.66676521      12
Cr     1.63910606   -0.01738816   -1.73551654      13
Cr    -0.14666526   -1.68773097   -1.73978722      14
Co    -0.06709651    1.70995027   -1.70835229      15
Co     1.67252732   -1.72064104   -0.05511965      16
Cr     1.69007973    1.71401333   -0.02002382      17
Cr    -1.05831632    0.00663926    0.90179309      18
          18
Lattice="  24.8920   0.0000   0.0000   0.0000  24.8920   0.0000   0.0000   0.0000  24.8920 " ConfE="      -5947.2860" DelE="         -0.0607"
Cr    -3.63315449    0.02747840   -0.07762119       1
Co     0.00177775    0.00864003    3.50539227       2
Ni     3.56367970   -0.01827142   -0.05060269       3
Cr    -0.06744232    0.01148576   -3.59560185       4
Co    -0.01167447   -3.57976463   -0.08690137       5
Cr    -0.03477517    3.62119586   -0.04652296       6
Ni    -1.77813050   -1.76152857   -0.01863981       7
Cr    -1.80379609    1.79443467   -0.03874648       8
Ni    -0.02093807   -1.74155869    1.71829913       9
Ni    -0.00517548    1.75077268    1.70196166      10
Co    -1.78641921    0.02386477   -1.75478991      11
Cr     1.71487941   -0.02857222    1.62315331      12
Cr     1.62043484   -0.03144946   -1.70644333      13
Cr    -0.12571121   -1.74660140   -1.82083241      14
Co    -0.03841460    1.73033513   -1.74189254      15
Co     1.70354749   -1.73698833   -0.07121379      16
Cr     1.76735019    1.75266406   -0.04904072      17
Cr    -1.77866172    0.05169672    1.67649368      18
