          18
Lattice="  24.8920   0.0000   0.0000   0.0000  24.8920   0.0000   0.0000   0.0000  24.8920 " ConfE="      -5934.1027" DelE="          0.0000"
Co    -3.54874477   -0.02121411   -0.02643732       1
Ni    -0.00095739   -3.54503045    0.00809406       2
Cr     3.54195998   -0.00789014    0.01530164       3
Ni     0.02826907    3.60331525   -0.02911247       4
Ni    -0.01247829   -0.01971019   -3.52088672       5
Ni    -0.02676768    0.02396110    3.51449183       6
Ni    -1.78035183   -0.00016481   -1.73352928       7
Ni    -1.77206275    0.04704448    1.73697502       8
Cr    -0.09731209   -1.74793484   -1.69425109       9
Cr    -0.11097171   -1.74445307    1.71231448      10
Ni    -1.75432461    1.84294721   -0.01493187      11
Ni     1.76476533   -1.77791145   -0.00511028      12
Ni     1.78524649    1.79997781   -0.00404723      13
Cr     0.06087924    1.73711749   -1.77756449      14
Co     0.01674816    1.82074681    1.73737746      15
Co     1.83289628   -0.02611227   -1.78172839      16
Co     1.80338576   -0.02212336    1.76285266      17
Ni     0.00000000    0.00000000    0.00000000      18
          18
Lattice="  24.8920   0.0000   0.0000   0.0000  24.8920   0.0000   0.0000   0.0000  24.8920 " ConfE="      -5933.4720" DelE="          0.6308"
Co    -3.50421056   -0.02411100   -0.02167855       1
Ni    -0.03426593   -3.47516772   -0.00620152       2
Cr     3.54760997   -0.02183514   -0.00901443       3
Ni     0.02584228    3.56397386   -0.02944922       4
Ni     0.00678684    0.02551522   -3.63046011       5
Ni    -0.00425718    0.04048514    3.60185660       6
Ni    -1.81986981    0.05261636   -1.92690136       7
Ni    -1.78328432    0.08266909    1.91318726       8
Cr    -0.03691572   -1.75020662   -1.96802365       9
Cr     0.02707442   -1.77953304    1.93620337      10
Ni    -1.71491068    1.73849971   -0.00891517      11
Ni     1.65545168   -1.70544459   -0.04701861      12
Ni     1.76408240    1.75038906    0.00064501      13
Cr     0.07461396    1.56152827   -1.67691298      14
Co     0.02331176    1.76030292    1.73351222      15
Co     1.79013514   -0.01075765   -1.80930751      16
Co     1.75693057   -0.04452919    1.76315319      17
Ni    -0.88448205   -0.90947206   -0.00419170      18
          18
Lattice="  24.8920   0.0000   0.0000   0.0000  24.8920   0.0000   0.0000   0.0000  24.8920 " ConfE="      -5934.1058" DelE="         -0.0031"
Co    -3.58383527    0.00345686   -0.01940342       1
Ni     0.02447375   -3.56634280    0.00720488       2
Cr     3.57486944    0.00238548   -0.00443098       3
Ni     0.03385904    3.59816117   -0.03179300       4
Ni    -0.00480561   -0.00730394   -3.56694209       5
Ni    -0.00840931    0.03735885    3.54573826       6
Ni    -1.75830638    0.01761892   -1.74206165       7
Ni    -1.72290712    0.03167211    1.73439885       8
Cr    -0.01230602   -1.67850473   -1.72575575       9
Cr     0.04905710   -1.69651413    1.74130432      10
Ni    -1.72690920    1.79617198   -0.01360681      11
Ni     1.72938741   -1.73326323   -0.03007065      12
Ni     1.77808549    1.77733959   -0.00901880      13
Cr     0.08003945    1.62626922   -1.70427613      14
Co     0.03223607    1.77797961    1.70319363      15
Co     1.81045239   -0.00175750   -1.78318010      16
Co     1.78468927   -0.01818985    1.74342236      17
Ni    -1.73246506   -1.74864734    0.01006640      18
