          18
Lattice="  24.8920   0.0000   0.0000   0.0000  24.8920   0.0000   0.0000   0.0000  24.8920 " ConfE="      -5923.6963" DelE="          0.0000"
Ni     0.05339717   -3.46649596   -0.05288564       1
Ni    -3.50227945    0.00851270   -0.11208295       2
Cr    -0.01390120   -0.03819271    3.38593800       3
Cr     3.64108753    0.01692007   -0.01468969       4
Co     0.04256727    3.57719348   -0.09540570       5
Co     0.02152185    0.04693797   -3.67609353       6
Ni     1.79779809   -1.73068488   -0.06237822       7
Ni     1.78986374    0.01529374    1.69198388       8
Ni    -1.71616484   -1.74955449   -0.07351387       9
Ni     1.82881471    1.79173392   -0.10038200      10
Ni     0.03384459    1.77961231   -1.86140708      11
Ni    -1.75035751    1.80188131   -0.10953356      12
Co    -1.63838514    0.00588568    1.67268951      13
Cr     0.00942433   -1.65507136   -1.92497249      14
Cr     1.79069940   -0.01164077   -1.84207272      15
Cr     0.02865185    1.85815927    1.65402792      16
Co    -1.71608252    0.00494203   -1.88951281      17
Cr     0.00000000    0.00000000    0.00000000      18
          18
Lattice="  24.8920   0.0000   0.0000   0.0000  24.8920   0.0000   0.0000   0.0000  24.8920 " ConfE="      -5922.8969" DelE="          0.7994"
Ni     0.05249914   -3.40030884   -0.08581043       1
Ni    -3.55551869    0.01338908   -0.12579116       2
Cr     0.03513321   -0.01162321    3.42450302       3
Cr     3.72101965    0.04458394   -0.03541966       4
Co     0.04066703    3.56646680   -0.07895679       5
Co     0.01920311    0.04979867   -3.69766127       6
Ni     1.93873029   -1.74061043   -0.09518617       7
Ni     1.91818069    0.03944538    1.70124055       8
Ni    -1.88969356   -1.78447820   -0.15901148       9
Ni     1.80847843    1.74274519   -0.08937000      10
Ni     0.03771638    1.73581017   -1.83329171      11
Ni    -1.70842437    1.72638317   -0.08661459      12
Co    -1.83461473    0.03676955    1.71629905      13
Cr     0.01541194   -1.61818411   -1.89940324      14
Cr     1.73892209   -0.02643883   -1.78496263      15
Cr     0.02318804    1.73744624    1.65547220      16
Co    -1.68130632   -0.02724586   -1.86248827      17
Cr    -0.03481901   -0.80783202    0.73833074      18
          18
Lattice="  24.8920   0.0000   0.0000   0.0000  24.8920   0.0000   0.0000   0.0000  24.8920 " ConfE="      -5923.7475" DelE="         -0.0511"
Ni     0.05059044   -3.50358726   -0.10061234       1
Ni    -3.51588070    0.01592546   -0.12639841       2
Cr     0.02277756    0.03759076    3.51406719       3
Cr     3.64265736    0.02292964   -0.01875238       4
Co     0.04226473    3.60112294   -0.10018779       5
Co     0.02202886    0.06842975   -3.73185798       6
Ni     1.76294660   -1.69525394   -0.09195631       7
Ni     1.77741825    0.04224730    1.66897647       8
Ni    -1.69310445   -1.70428150   -0.10954573       9
Ni     1.79789410    1.77313785   -0.11191342      10
Ni     0.03611190    1.77215631   -1.86990555      11
Ni    -1.71749284    1.77552757   -0.12184907      12
Co    -1.61229277    0.03911534    1.65480349      13
Cr     0.00079426   -1.60960936   -1.92475214      14
Cr     1.74434994   -0.01003650   -1.84701313      15
Cr     0.00083894    1.77084105    1.63249446      16
Co    -1.68016643    0.00760587   -1.90147319      17
Cr    -0.01817425   -1.69549558    1.71589843      18
