          18
Lattice="  24.8920   0.0000   0.0000   0.0000  24.8920   0.0000   0.0000   0.0000  24.8920 " ConfE="      -5939.7353" DelE="          0.0000"
Ni    -0.00271103    0.05400254    3.55388160       1
Co     3.53425773    0.07503262   -0.02875203       2
Cr     0.04804400   -3.45744860   -0.01118248       3
Ni     0.01382934    0.08098426   -3.54808653       4
Cr    -0.07163477    3.66391890    0.01807180       5
Co    -3.57382896    0.03142746   -0.03954545       6
Ni     1.77569752    0.06052924    1.75116338       7
Co     0.00029971   -1.71223407    1.71926005       8
Cr     1.78187594    0.02198135   -1.68855650       9
Co     0.05021331   -1.69220443   -1.73697193      10
Ni    -0.01182317    1.84194536    1.78938206      11
Ni     1.75902715    1.88326090    0.02285533      12
Cr    -1.78902014    0.02300651    1.73471097      13
Cr    -1.83713901   -1.74724857   -0.01372211      14
Cr    -0.06306633    1.83659754   -1.75514937      15
Co    -1.76443421    0.04514062   -1.74072079      16
Co    -1.79952859    1.84175861    0.00811093      17
Cr     0.00000000    0.00000000    0.00000000      18
          18
Lattice="  24.8920   0.0000   0.0000   0.0000  24.8920   0.0000   0.0000   0.0000  24.8920 " ConfE="      -5939.0033" DelE="          0.7320"
Ni    -0.01012933    0.06303314    3.61309098       1
Co     3.51259107    0.06538551   -0.01329852       2
Cr     0.04268000   -3.46927392   -0.02709682       3
Ni    -0.00372543    0.09075412   -3.59970841       4
Cr    -0.06335177    3.62063402    0.01525571       5
Co    -3.58099880    0.03873637   -0.04009122       6
Ni     1.81387530    0.12129786    1.89824531       7
Co    -0.03668372   -1.71470940    1.83806451       8
Cr     1.79099526    0.13070247   -1.85318712       9
Co    -0.01648583   -1.70158852   -1.86564484      10
Ni    -0.00219432    1.80313941    1.78110240      11
Ni     1.73791341    1.80225266    0.02679993      12
Cr    -1.68799020    0.00506203    1.66016851      13
Cr    -1.76711633   -1.69822151   -0.02572217      14
Cr    -0.07051009    1.73508998   -1.68704216      15
Co    -1.70621895    0.04159338   -1.69406800      16
Co    -1.77676752    1.80763774    0.01973807      17
Cr     0.99359963   -0.88461647   -0.01040542      18
          18
Lattice="  24.8920   0.0000   0.0000   0.0000  24.8920   0.0000   0.0000   0.0000  24.8920 " ConfE="      -5939.8395" DelE="         -0.1042"
Ni    -0.00534700    0.05615334    3.57542487       1
Co     3.57461856    0.11034065   -0.02225612       2
Cr     0.03093253   -3.52913357   -0.01317255       3
Ni    -0.00467207    0.09029470   -3.58003675       4
Cr    -0.07636659    3.66258705    0.02385298       5
Co    -3.59930507    0.04157335   -0.04315035       6
Ni     1.75478891    0.06894809    1.74262268       7
Co    -0.02540392   -1.67211572    1.69561413       8
Cr     1.68775395    0.10624307   -1.69408151       9
Co     0.00803851   -1.65604000   -1.73529997      10
Ni    -0.02022133    1.82649745    1.77488608      11
Ni     1.72275728    1.84231477    0.01939360      12
Cr    -1.74043178    0.01960107    1.67841219      13
Cr    -1.76887679   -1.68145548   -0.01702402      14
Cr    -0.09928368    1.81101526   -1.72880961      15
Co    -1.73257029    0.05808824   -1.70161366      16
Co    -1.78788917    1.82233109    0.01488786      17
Cr     1.77034086   -1.71751285   -0.06739053      18
