          18
Lattice="  24.8920   0.0000   0.0000   0.0000  24.8920   0.0000   0.0000   0.0000  24.8920 " ConfE="      -5947.9472" DelE="          0.0000"
Co    -3.53616763   -0.05533347   -0.04012647       1
Ni     0.01185825    0.03306217    3.49576987       2
Ni     3.53374560   -0.02844115   -0.05447999       3
Ni     0.00713265    0.01969341   -3.60634109       4
Co    -0.00502842    3.53146266   -0.02861850       5
Cr    -0.01786510   -3.56874651   -0.03416944       6
Cr    -1.77854856    1.71949869    0.00359518       7
Ni    -1.75456303   -1.74110288   -0.01978676       8
Cr    -0.04630104    1.78648435    1.73206446       9
Co    -0.03718410   -1.75182780    1.73765903      10
Cr    -1.75879393    0.06485852   -1.83165229      11
Cr     1.82230201   -0.00062154    1.75584932      12
Ni     1.75167865   -0.01178588   -1.82423281      13
Co    -0.03164237    1.78797205   -1.78170914      14
Co    -0.03487156   -1.82309574   -1.81511941      15
Ni     1.77917944    1.74942738   -0.03329431      16
Cr     1.74845857   -1.83224241   -0.04169722      17
Ni     0.00000000    0.00000000    0.00000000      18
          18
Lattice="  24.8920   0.0000   0.0000   0.0000  24.8920   0.0000   0.0000   0.0000  24.8920 " ConfE="      -5947.3625" DelE="          0.5846"
Co    -3.51372339   -0.06064167   -0.03264429       1
Ni     0.00211087    0.03169442    3.45131444       2
Ni     3.52478627   -0.03065325   -0.04551881       3
Ni     0.00910040    0.01816012   -3.60034084       4
Co    -0.01262615    3.55692002   -0.02669648       5
Cr     0.01390182   -3.65531594   -0.05660414       6
Cr    -1.85693473    1.87578619   -0.09981366       7
Ni    -1.76025762   -1.87786024   -0.07728662       8
Cr     0.01837956    2.02124016    1.80975435       9
Co     0.02346652   -1.95018800    1.70946203      10
Cr    -1.62940400    0.07746231   -1.69892429      11
Cr     1.71009454   -0.01902223    1.67883029      12
Ni     1.69935922   -0.02422599   -1.76122894      13
Co    -0.04717621    1.76585613   -1.73915455      14
Co    -0.02484511   -1.82698084   -1.78290405      15
Ni     1.72831322    1.73261620   -0.01361046      16
Cr     1.68691456   -1.79624165   -0.01597609      17
Ni    -0.90243945    0.06573931    0.96466958      18
          18
Lattice="  24.8920   0.0000   0.0000   0.0000  24.8920   0.0000   0.0000   0.0000  24.8920 " ConfE="      -5947.8862" DelE="          0.0610"
Co    -3.56859440   -0.05104787   -0.06514768       1
Ni     0.02554103    0.03389562    3.54099851       2
Ni     3.53770961   -0.03251679   -0.05412410       3
Ni     0.01468196    0.01564909   -3.63036507       4
Co    -0.00083679    3.55877009   -0.03588859       5
Cr    -0.00836513   -3.59836859   -0.04867106       6
Cr    -1.73777478    1.73458787   -0.06493317       7
Ni    -1.71669197   -1.72298627   -0.05697810       8
Cr     0.00842761    1.78830756    1.69700755       9
Co     0.03725314   -1.73031458    1.66433675      10
Cr    -1.69982896    0.06384152   -1.79250496      11
Cr     1.73243173   -0.00910430    1.70166890      12
Ni     1.71514296   -0.03366138   -1.78953431      13
Co    -0.04934404    1.73770939   -1.74623369      14
Co    -0.02339908   -1.81775248   -1.80918660      15
Ni     1.73507212    1.70940658   -0.03511166      16
Cr     1.71085168   -1.79723944   -0.03893419      17
Ni    -1.70624468    0.02296097    1.70736353      18
