          18
Lattice="  24.8920   0.0000   0.0000   0.0000  24.8920   0.0000   0.0000   0.0000  24.8920 " ConfE="      -5924.5210" DelE="          0.0000"
Ni    -0.01685480    0.06578616    3.53390153       1
Ni    -0.03803207    3.53194021    0.00631720       2
Ni    -3.57366150    0.06025564   -0.01962157       3
Cr     0.05805402   -3.49638841   -0.02809797       4
Co    -0.00039023    0.01864979   -3.61600640       5
Co     3.49471457    0.05644424   -0.02883045       6
Ni    -1.76500571    0.02743452    1.77721460       7
Ni    -1.76091794    1.77171963    0.00394250       8
Ni     1.71603148    0.09075405    1.77484334       9
Ni     1.70305942    1.81402806   -0.00775775      10
Ni    -1.80560296    0.05363897   -1.81012284      11
Ni    -1.77251790   -1.75832586   -0.00699822      12
Cr     0.02115039   -1.74981086    1.76682976      13
Cr     0.00261389    1.75038204   -1.82820406      14
Co    -0.03853151   -1.73173724   -1.82600868      15
Co     1.72781685    0.04507152   -1.80426091      16
Cr     1.71523041   -1.67145466   -0.07508878      17
Co     0.00000000    0.00000000    0.00000000      18
          18
Lattice="  24.8920   0.0000   0.0000   0.0000  24.8920   0.0000   0.0000   0.0000  24.8920 " ConfE="      -5923.2561" DelE="          1.2649"
Ni    -0.01641681    0.06288032    3.50888268       1
Ni    -0.04219522    3.50973398   -0.00042449       2
Ni    -3.63340323    0.03948217   -0.02973493       3
Cr     0.07352013   -3.50091078   -0.00136311       4
Co     0.01287800    0.03342938   -3.59937926       5
Co     3.55486625    0.04413135   -0.04398181       6
Ni    -1.90563599   -0.02043875    1.78430191       7
Ni    -1.95147514    1.79299427   -0.05155239       8
Ni     1.86004800    0.04511467    1.77917144       9
Ni     1.86698244    1.86013127   -0.05025248      10
Ni    -1.79271124    0.05295686   -1.77710404      11
Ni    -1.74239381   -1.71729318    0.00392239      12
Cr     0.03026546   -1.58715985    1.69329311      13
Cr    -0.01035027    1.69134258   -1.66666941      14
Co    -0.02436438   -1.70395022   -1.77504250      15
Co     1.69065116    0.05536470   -1.73625045      16
Cr     1.67083396   -1.60703177   -0.06332256      17
Co    -0.02974782    1.21231723    1.12881669      18
          18
Lattice="  24.8920   0.0000   0.0000   0.0000  24.8920   0.0000   0.0000   0.0000  24.8920 " ConfE="      -5923.7816" DelE="          0.7395"
Ni    -0.01521194    0.04896886    3.56017070       1
Ni    -0.04114721    3.57744608   -0.02990257       2
Ni    -3.58583323    0.05892656   -0.02508487       3
Cr     0.05629454   -3.53576925   -0.02362355       4
Co     0.00225062    0.01424354   -3.62780853       5
Co     3.50827829    0.05162958   -0.03496677       6
Ni    -1.75421590    0.01768910    1.75380113       7
Ni    -1.76039310    1.75496854   -0.03107664       8
Ni     1.70868913    0.05497157    1.73374150       9
Ni     1.69478785    1.78765313   -0.04415704      10
Ni    -1.78453871    0.05110391   -1.79860676      11
Ni    -1.73269594   -1.73312167   -0.00176357      12
Cr     0.02841371   -1.69382591    1.72544575      13
Cr     0.00110950    1.72375378   -1.78053461      14
Co    -0.02222373   -1.70566021   -1.77176888      15
Co     1.68409048    0.03593357   -1.76788579      16
Cr     1.68560520   -1.68219186   -0.09004195      17
Co    -0.01672520    1.80427270    1.70543591      18
