          18
Lattice="  24.8920   0.0000   0.0000   0.0000  24.8920   0.0000   0.0000   0.0000  24.8920 " ConfE="      -5935.0691" DelE="          0.0000"
Co    -3.52919453    0.05707775    0.00387593       1
Co     0.07864985   -3.55728543    0.05507697       2
Ni     3.62062196    0.02125753   -0.03471005       3
Co     0.07392300    3.53564013   -0.06128466       4
Co     0.08594078    0.02372165    3.56872616       5
Co     0.05180549    0.05378393   -3.56265814       6
Ni    -1.74904168    0.03547243    1.75563663       7
Co    -1.73016462    0.06957981   -1.77229481       8
Ni     0.00646495   -1.74244112    1.76478795       9
Ni     0.05091229   -1.74498985   -1.75847157      10
Cr    -1.79634238    1.84290820    0.00742195      11
Ni     1.84080607   -1.76070946   -0.00615923      12
Cr     1.86785731    1.78670997   -0.08425822      13
Ni     0.07495807    1.79045031    1.75080491      14
Cr     0.01805699    1.72875037   -1.81431623      15
Co     1.85294282    0.03722978    1.76955709      16
Cr     1.77458459    0.01355105   -1.77737309      17
Ni     0.00000000    0.00000000    0.00000000      18
          18
Lattice="  24.8920   0.0000   0.0000   0.0000  24.8920   0.0000   0.0000   0.0000  24.8920 " ConfE="      -5934.1729" DelE="          0.8962"
Co    -3.50054969    0.05094822    0.00234613       1
Co     0.07180748   -3.54250883    0.05849006       2
Ni     3.63009572    0.01161857   -0.03365040       3
Co     0.05967612    3.53092271   -0.07684543       4
Co     0.10710642    0.04520401    3.61488876       5
Co     0.06632328    0.04837830   -3.61627023       6
Ni    -1.74970833    0.05142776    1.93890340       7
Co    -1.77500087    0.12048607   -1.96634280       8
Ni     0.07668043   -1.76019176    1.88987700       9
Ni     0.11853384   -1.78472742   -1.87701647      10
Cr    -1.73924675    1.64810204    0.00536878      11
Ni     1.80755690   -1.75321651    0.00408875      12
Cr     1.82066264    1.73770333   -0.07887649      13
Ni     0.06183957    1.74344682    1.70519560      14
Cr     0.00247221    1.64708940   -1.75943529      15
Co     1.83125107    0.03122886    1.74400771      16
Cr     1.71520480   -0.00575979   -1.71023753      17
Ni    -1.09075142   -0.99837469   -0.03175035      18
          18
Lattice="  24.8920   0.0000   0.0000   0.0000  24.8920   0.0000   0.0000   0.0000  24.8920 " ConfE="      -5934.6771" DelE="          0.3920"
Co    -3.57159213    0.05977723    0.01328701       1
Co     0.09418917   -3.57246793    0.04791213       2
Ni     3.65053512    0.02156739   -0.03236236       3
Co     0.07673778    3.55913709   -0.07018109       4
Co     0.09714509    0.03109659    3.58474539       5
Co     0.05749639    0.05189019   -3.59172762       6
Ni    -1.71850698    0.04330403    1.75991635       7
Co    -1.67419360    0.08490365   -1.72857999       8
Ni     0.04958678   -1.71361501    1.76293414       9
Ni     0.07157293   -1.71397913   -1.75398433      10
Cr    -1.73445292    1.72308083   -0.00881519      11
Ni     1.82109727   -1.73542129   -0.00532648      12
Cr     1.84300177    1.75351787   -0.07432107      13
Ni     0.08128620    1.75490558    1.69612736      14
Cr     0.03513161    1.68989907   -1.76744878      15
Co     1.85300889    0.04398781    1.74481751      16
Cr     1.75468975    0.02113804   -1.72453503      17
Ni    -1.70660484   -1.70550024    0.01065661      18
