          18
Lattice="  24.8920   0.0000   0.0000   0.0000  24.8920   0.0000   0.0000   0.0000  24.8920 " ConfE="      -5944.8174" DelE="          0.0000"
Cr     3.39181277   -0.08153849   -0.05252116       1
Co    -0.05879780   -0.02425368   -3.57369483       2
Co    -3.64845890   -0.05550279   -0.00462376       3
Ni    -0.10350822   -0.07645022    3.57431864       4
Co    -0.06128665   -3.63090616    0.00473909       5
Cr    -0.11246453    3.45659333   -0.02966089       6
Co     1.69821341   -1.80148718    0.00154612       7
Cr     1.67779929    1.65965840   -0.05811841       8
Ni    -0.04807825   -1.78547657   -1.76694475       9
Co     0.00458122    1.71800143   -1.75375971      10
Ni     1.67992698   -0.07596932    1.82195484      11
Ni    -1.84157105   -0.03312543   -1.79369427      12
Co    -1.82383726   -0.02659134    1.76415282      13
Cr    -0.10359909   -1.86733832    1.76566406      14
Cr    -0.09892532    1.68557379    1.74012284      15
Ni    -1.81566935   -1.78460809    0.01931833      16
Ni    -1.85979407    1.69578222   -0.01454957      17
Co     0.00000000    0.00000000    0.00000000      18
          18
Lattice="  24.8920   0.0000   0.0000   0.0000  24.8920   0.0000   0.0000   0.0000  24.8920 " ConfE="      -5944.2428" DelE="          0.5746"
Cr     3.36428832   -0.07498252   -0.07572173       1
Co    -0.02648328   -0.02755914   -3.50636275       2
Co    -3.62678824   -0.05318769   -0.00830521       3
Ni    -0.09019583   -0.08044731    3.58427507       4
Co    -0.06997756   -3.69321338    0.02310162       5
Cr    -0.12680659    3.52604984   -0.00120264       6
Co     1.71134086   -1.96617252    0.05183519       7
Cr     1.70514407    1.83935681    0.01884394       8
Ni    -0.08060907   -1.92676571   -1.77819844       9
Co    -0.05846669    1.87817810   -1.79794019      10
Ni     1.65604542   -0.07865341    1.75676963      11
Ni    -1.76747200   -0.03393100   -1.76914254      12
Co    -1.74981738   -0.02166662    1.73183417      13
Cr    -0.06785553   -1.84822003    1.73530283      14
Cr    -0.08975505    1.62736080    1.68736096      15
Ni    -1.76561123   -1.77247618    0.02421172      16
Ni    -1.79879671    1.68432278   -0.02552979      17
Co     0.80652014    0.02790363   -0.74799802      18
          18
Lattice="  24.8920   0.0000   0.0000   0.0000  24.8920   0.0000   0.0000   0.0000  24.8920 " ConfE="      -5945.0859" DelE="         -0.2685"
Cr     3.48138551   -0.06601015    0.01622556       1
Co    -0.07139629   -0.02683525   -3.59198555       2
Co    -3.65453985   -0.05443164   -0.00419268       3
Ni    -0.10012890   -0.07955871    3.59345691       4
Co    -0.07075200   -3.65052024    0.01002957       5
Cr    -0.13020855    3.50490723   -0.00549248       6
Co     1.66252275   -1.81032385    0.02205943       7
Cr     1.64268408    1.66697511   -0.03157690       8
Ni    -0.08078550   -1.80335123   -1.74675580       9
Co    -0.02379446    1.72435867   -1.71989671      10
Ni     1.63954085   -0.07092187    1.76008323      11
Ni    -1.81012008   -0.03198657   -1.77793318      12
Co    -1.77751815   -0.01803289    1.75236837      13
Cr    -0.11075954   -1.84262520    1.76152623      14
Cr    -0.11569078    1.63241347    1.70925177      15
Ni    -1.79373506   -1.75836646    0.03076911      16
Ni    -1.83331592    1.68002165   -0.01082535      17
Co     1.69114113   -0.03995531   -1.71256253      18
