          18
Lattice="  24.8920   0.0000   0.0000   0.0000  24.8920   0.0000   0.0000   0.0000  24.8920 " ConfE="      -5936.8052" DelE="          0.0000"
Ni    -0.01250289    3.54225262   -0.04566860       1
Co    -0.00837868    0.04599721    3.45488280       2
Cr     0.00297039   -3.44060002   -0.02985957       3
Co    -0.02277772   -0.00566495   -3.60619744       4
Co     3.56329094   -0.02774536   -0.05461181       5
Cr    -3.52109654   -0.00112571    0.02184534       6
Ni     1.75663562   -0.02993544    1.74111248       7
Ni    -1.73907878   -1.72187385    0.00185094       8
Ni    -0.01686920    1.75164117   -1.81501389       9
Ni     1.75813991    1.77169592   -0.01468900      10
Co    -1.76908350    0.01967085    1.74573410      11
Co     1.73912257   -1.78100258   -0.01343080      12
Cr     0.01987031    1.78618355    1.79209541      13
Cr    -1.79494948    1.74004761    0.00714207      14
Co    -0.00691575   -1.76002214   -1.82133859      15
Co     1.78505434   -0.01351609   -1.81634016      16
Co    -1.80260193    0.00415549   -1.79633385      17
Ni     0.00000000    0.00000000    0.00000000      18
          18
Lattice="  24.8920   0.0000   0.0000   0.0000  24.8920   0.0000   0.0000   0.0000  24.8920 " ConfE="      -5936.2382" DelE="          0.5670"
Ni    -0.01263170    3.52955454   -0.04241137       1
Co    -0.00578963    0.03257608    3.40213621       2
Cr    -0.00315969   -3.37306944   -0.02040761       3
Co    -0.01398910   -0.01610218   -3.60915489       4
Co     3.62938282    0.00880748   -0.06938282       5
Cr    -3.61628238    0.01689583   -0.03591892       6
Ni     1.92565615    0.02043963    1.76375792       7
Ni    -1.93697535   -1.74138843   -0.08420682       8
Ni    -0.00735361    1.69152935   -1.76883783       9
Ni     1.75108593    1.74250761   -0.00801563      10
Co    -1.99661031    0.04259051    1.78082972      11
Co     1.92606938   -1.77665672   -0.08010282      12
Cr    -0.00523103    1.67032375    1.72979390      13
Cr    -1.74452408    1.62559816    0.00372747      14
Co     0.00555528   -1.72630624   -1.73127493      15
Co     1.79569293   -0.01482314   -1.79440699      16
Co    -1.79972960   -0.00433453   -1.78897267      17
Ni    -0.03036866   -0.80381380    0.79779786      18
          18
Lattice="  24.8920   0.0000   0.0000   0.0000  24.8920   0.0000   0.0000   0.0000  24.8920 " ConfE="      -5936.9157" DelE="         -0.1106"
Ni    -0.01905216    3.55236723   -0.04945394       1
Co     0.00748240    0.06857023    3.50525851       2
Cr    -0.00614781   -3.48358845   -0.09443391       3
Co    -0.01610582   -0.00798201   -3.62085921       4
Co     3.59220866   -0.01284536   -0.05837285       5
Cr    -3.56726275    0.01190648   -0.00774737       6
Ni     1.77093352    0.00855152    1.71854521       7
Ni    -1.73622189   -1.66997042   -0.03765431       8
Ni    -0.01502822    1.71475597   -1.78619990       9
Ni     1.71137858    1.73391070   -0.01763760      10
Co    -1.71381227    0.07115003    1.68340270      11
Co     1.76731199   -1.74754834   -0.04622113      12
Cr    -0.00108635    1.73152881    1.73917546      13
Cr    -1.75638906    1.68405375   -0.00787594      14
Co     0.01005207   -1.73204658   -1.77153913      15
Co     1.77517275   -0.01746392   -1.80252588      16
Co    -1.78480756    0.01614318   -1.79293484      17
Ni     0.02276734   -1.71529619    1.70313725      18
