          18
Lattice="  24.8920   0.0000   0.0000   0.0000  24.8920   0.0000   0.0000   0.0000  24.8920 " ConfE="      -5943.7070" DelE="          0.0000"
Ni     0.03438259   -3.49765806   -0.00580916       1
Ni     0.05205396    0.04984718   -3.55721809       2
Ni     3.61325630    0.02724926    0.00109565       3
Co    -3.51801476   -0.00678854   -0.06808395       4
Co     0.08910945    0.02806073    3.57570384       5
Cr     0.06176568    3.64735285    0.01971099       6
Ni     0.02660555   -1.74543904    1.77208467       7
Ni    -1.76159783   -0.02026753    1.72091143       8
Ni    -1.71366382    0.01119966   -1.79092578       9
Ni    -1.70136559    1.82773505   -0.01151461      10
Ni     1.82689403   -1.74792533   -0.01489614      11
Co     0.10511806   -1.80376650   -1.82805082      12
Ni     1.81616361    0.02972683    1.78273513      13
Ni     0.04015462    1.82500129   -1.76942329      14
Ni     1.81722207    1.80385190    0.01720505      15
Ni     1.81868587    0.02115287   -1.78343559      16
Cr     0.05828465    1.79362363    1.79876303      17
Ni     0.00000000    0.00000000    0.00000000      18
          18
Lattice="  24.8920   0.0000   0.0000   0.0000  24.8920   0.0000   0.0000   0.0000  24.8920 " ConfE="      -5943.1939" DelE="          0.5131"
Ni     0.02432755   -3.43857021   -0.01241175       1
Ni     0.05211447    0.06739179   -3.59165216       2
Ni     3.60865353    0.02380052   -0.00100405       3
Co    -3.47554498   -0.01202713   -0.05541054       4
Co     0.11441994    0.03330450    3.62980333       5
Cr     0.05857637    3.66408650    0.01767238       6
Ni     0.06930501   -1.77471839    1.90435227       7
Ni    -1.75438306    0.03033970    1.87920588       8
Ni    -1.76669134    0.08485411   -1.92656974       9
Ni    -1.66306308    1.76339312    0.00296309      10
Ni     1.78179972   -1.71792628   -0.00984486      11
Co     0.17672691   -1.84292020   -1.97330367      12
Ni     1.79522716    0.02583407    1.78703076      13
Ni     0.03787958    1.80869154   -1.75760178      14
Ni     1.78771941    1.78517468    0.02257148      15
Ni     1.79612699    0.02446873   -1.77586228      16
Cr     0.06789114    1.76917510    1.79397290      17
Ni    -0.61814547   -0.67192800   -0.04880486      18
          18
Lattice="  24.8920   0.0000   0.0000   0.0000  24.8920   0.0000   0.0000   0.0000  24.8920 " ConfE="      -5943.8866" DelE="         -0.1797"
Ni     0.05896628   -3.54567131   -0.00425263       1
Ni     0.05256695    0.05565676   -3.56777418       2
Ni     3.61667600    0.02521553    0.00206477       3
Co    -3.53551867    0.04199285   -0.06406324       4
Co     0.10908197    0.03260243    3.60790942       5
Cr     0.07046787    3.68056234    0.01849788       6
Ni     0.04841613   -1.73628671    1.76972624       7
Ni    -1.66963071    0.03725890    1.72764429       8
Ni    -1.69198463    0.04270844   -1.79007839       9
Ni    -1.65002941    1.80667206   -0.00348891      10
Ni     1.79002063   -1.73218462   -0.01741167      11
Co     0.11830532   -1.80034220   -1.83551216      12
Ni     1.78856020    0.03456629    1.76271815      13
Ni     0.05364974    1.81599489   -1.74704663      14
Ni     1.80459365    1.80029800    0.02030716      15
Ni     1.79677408    0.02009359   -1.76462223      16
Cr     0.09517857    1.81978406    1.79786320      17
Ni    -1.69161817   -1.70995261   -0.03279424      18
