          18
Lattice="  24.8920   0.0000   0.0000   0.0000  24.8920   0.0000   0.0000   0.0000  24.8920 " ConfE="      -5927.5556" DelE="          0.0000"
Ni    -0.01339354    3.57187451   -0.04017701       1
Cr     0.01953039   -0.11890329    3.47765630       2
Cr     0.01245515   -3.44154243    0.09202811       3
Cr     0.04049121    0.03152618   -3.57713878       4
Co    -3.55412269    0.02681794   -0.05667762       5
Cr     3.48932595    0.02771776   -0.05231979       6
Ni    -1.75832749   -1.73787669    0.00788749       7
Ni     1.74245115    0.01983094    1.74333172       8
Ni     1.73776430    1.82059825   -0.03459343       9
Cr    -1.78667512    0.00684304    1.77709086      10
Co     1.78269538   -1.72875454   -0.01615428      11
Ni    -1.79272367   -0.00174449   -1.81911179      12
Co    -0.04057524    1.81586900    1.79385729      13
Co    -0.02429153    1.76741060   -1.82860973      14
Cr    -1.77015527    1.74108553   -0.04623730      15
Co    -0.02743526   -1.73286294   -1.83603564      16
Co     1.77985989    0.03335658   -1.80003430      17
Ni     0.00000000    0.00000000    0.00000000      18
          18
Lattice="  24.8920   0.0000   0.0000   0.0000  24.8920   0.0000   0.0000   0.0000  24.8920 " ConfE="      -5927.0593" DelE="          0.4963"
Ni    -0.00621237    3.56358646   -0.03030805       1
Cr     0.02846435   -0.16481351    3.43892622       2
Cr     0.01650820   -3.35358149    0.07530327       3
Cr     0.03899762    0.01774031   -3.61605137       4
Co    -3.59615661    0.05053875   -0.07421704       5
Cr     3.53084816    0.03080153   -0.05187851       6
Ni    -1.93613357   -1.75883758   -0.09410748       7
Ni     1.88345038    0.04252245    1.79559809       8
Ni     1.71048107    1.76426825   -0.01269539       9
Cr    -1.94076663   -0.01260608    1.82729218      10
Co     1.91011205   -1.71119847   -0.04969302      11
Ni    -1.82087271   -0.01109804   -1.85146708      12
Co    -0.03510723    1.75987425    1.79206877      13
Co    -0.04445342    1.70923179   -1.77135707      14
Cr    -1.65195008    1.62537677   -0.03770032      15
Co    -0.02404424   -1.69318097   -1.79506891      16
Co     1.77111746    0.03256042   -1.78218245      17
Ni    -0.05351238   -0.53039040    0.59626027      18
          18
Lattice="  24.8920   0.0000   0.0000   0.0000  24.8920   0.0000   0.0000   0.0000  24.8920 " ConfE="      -5927.6864" DelE="         -0.1308"
Ni    -0.01078542    3.60228251   -0.04602290       1
Cr     0.01602870    0.04371735    3.55900765       2
Cr    -0.00757687   -3.53079538   -0.00756075       3
Cr     0.04383390    0.02474391   -3.60185469       4
Co    -3.56730612    0.03614992   -0.06449262       5
Cr     3.50146901    0.03202018   -0.05613473       6
Ni    -1.74231915   -1.69828388   -0.03982785       7
Ni     1.72525362    0.06956413    1.70802344       8
Ni     1.70870972    1.80569420   -0.04636644       9
Cr    -1.78008538    0.06002008    1.73774917      10
Co     1.77691486   -1.69560354   -0.05434099      11
Ni    -1.77374337    0.00427781   -1.81816318      12
Co    -0.06055668    1.79168431    1.75297682      13
Co    -0.04127793    1.74586373   -1.78488294      14
Cr    -1.69041493    1.71251187   -0.07320008      15
Co    -0.01726752   -1.70909698   -1.81073273      16
Co     1.74807716    0.04102544   -1.78600197      17
Ni     0.01763403   -1.69842011    1.68671976      18
