          18
Lattice="  24.8920   0.0000   0.0000   0.0000  24.8920   0.0000   0.0000   0.0000  24.8920 " ConfE="      -5944.7496" DelE="          0.0000"
Co     3.35756948   -0.12324611   -0.01105589       1
Cr    -0.04204814    3.27408144    0.00911831       2
Co    -3.69278796   -0.14931050   -0.00553155       3
Ni    -0.14072995   -3.68434253    0.00688394       4
Ni    -0.09650312   -0.17497708   -3.55146312       5
Co    -0.06016301   -0.16951811    3.53588886       6
Cr     1.72534156   -0.08430761   -1.78544404       7
Cr     1.70986221   -0.11352817    1.70157828       8
Cr    -0.15830400    1.63172456   -1.77791959       9
Co    -0.09331163    1.57699217    1.73448436      10
Ni     1.65121423   -1.96553579   -0.01602011      11
Co    -1.91097640    1.60149531   -0.00966372      12
Cr    -1.92513114   -1.87599402   -0.07994858      13
Ni    -0.08082643   -1.90603993   -1.75942675      14
Cr    -0.09277716   -1.82471566    1.77309328      15
Co    -1.86284665   -0.16828488   -1.73293512      16
Ni    -1.88502188   -0.16212887    1.76410162      17
Cr     0.00000000    0.00000000    0.00000000      18
          18
Lattice="  24.8920   0.0000   0.0000   0.0000  24.8920   0.0000   0.0000   0.0000  24.8920 " ConfE="      -5944.2854" DelE="          0.4642"
Co     3.39967392   -0.17570600   -0.00538966       1
Cr    -0.12224013    3.38960286   -0.03529548       2
Co    -3.63891085   -0.17615831   -0.00062660       3
Ni    -0.17627340   -3.66950597   -0.00854403       4
Ni    -0.11425014   -0.19684759   -3.60016049       5
Co    -0.06314921   -0.14891845    3.62508270       6
Cr     1.54630167   -0.14711119   -1.68784563       7
Cr     1.52226152   -0.15654706    1.61103137       8
Cr    -0.24275361    1.50243486   -1.69711297       9
Co    -0.11325902    1.53019418    1.71421540      10
Ni     1.58630540   -1.95062102   -0.02414477      11
Co    -1.83358751    1.53581709   -0.00565986      12
Cr    -1.17675942   -1.21129851   -0.00831451      13
Ni    -0.07024922   -1.98673068   -1.87990095      14
Cr    -0.09954727   -1.88728885    1.86769119      15
Co    -1.89226918   -0.17007546   -1.84235048      16
Ni    -1.90159593   -0.12493078    1.88964373      17
Cr     1.58954938    1.59977000   -0.00115921      18
          18
Lattice="  24.8920   0.0000   0.0000   0.0000  24.8920   0.0000   0.0000   0.0000  24.8920 " ConfE="      -5944.8063" DelE="         -0.0568"
Co     3.39183799   -0.16899107   -0.00525657       1
Cr    -0.09396574    3.39826976   -0.02840456       2
Co    -3.66072070   -0.16723714   -0.00912076       3
Ni    -0.18218529   -3.66154760    0.00732305       4
Ni    -0.12792773   -0.19981959   -3.55718022       5
Co    -0.07393390   -0.17748668    3.54790457       6
Cr     1.66175701   -0.15642479   -1.81993536       7
Cr     1.65887456   -0.17468297    1.76497355       8
Cr    -0.21945212    1.58459304   -1.76325364       9
Co    -0.12017135    1.58155847    1.75854135      10
Ni     1.66225784   -1.97213330   -0.01363232      11
Co    -1.85388048    1.63257645    0.00433896      12
Cr    -0.12336209   -0.20755864    0.02215204      13
Ni    -0.13607316   -1.94988077   -1.75063695      14
Cr    -0.13954429   -1.87370768    1.78488188      15
Co    -1.85607288   -0.20507486   -1.69676395      16
Ni    -1.88948301   -0.19638112    1.75205739      17
Cr     1.63941173    1.60589954    0.00761527      18
