          18
Lattice="  24.8920   0.0000   0.0000   0.0000  24.8920   0.0000   0.0000   0.0000  24.8920 " ConfE="      -5939.6144" DelE="          0.0000"
Co     0.01712492    0.02494351   -3.42205496       1
Ni     3.62743319   -0.00064641    0.04901065       2
Cr    -3.41038333   -0.07258561   -0.00693461       3
Co     0.07947634   -3.49241600    0.09237783       4
Cr     0.02941222    3.57858236    0.03562548       5
Cr     0.10648982    0.02029589    3.59097342       6
Ni     0.00523027   -1.74010963   -1.70078984       7
Ni     1.86437327   -0.02700960   -1.72008284       8
Co    -1.72699248   -1.71424679    0.08151538       9
Cr     0.02254382    1.75571699   -1.70390482      10
Ni    -1.71953483    0.02143265    1.85831195      11
Co    -1.65496555    1.74520492    0.03484367      12
Co     1.81475760   -1.77142014    0.06464372      13
Co     1.83834835    1.79805866    0.00527297      14
Co     1.79524312    0.02110409    1.80573050      15
Co     0.05905681   -1.73006246    1.87133658      16
Cr     0.12161645    1.77497072    1.77885935      17
Cr     0.00000000    0.00000000    0.00000000      18
          18
Lattice="  24.8920   0.0000   0.0000   0.0000  24.8920   0.0000   0.0000   0.0000  24.8920 " ConfE="      -5938.6347" DelE="          0.9797"
Co     0.02364299    0.00904288   -3.38348300       1
Ni     3.56727015    0.00633943    0.08406696       2
Cr    -3.45013571   -0.04372748    0.00973510       3
Co     0.09593578   -3.61528594    0.09605047       4
Cr     0.02933738    3.69866700    0.06305601       5
Cr     0.11902865    0.00533883    3.47755849       6
Ni     0.08964652   -1.89783274   -1.70031034       7
Ni     1.76521900   -0.02213083   -1.62568535       8
Co    -1.70010836   -1.87357029    0.13204280       9
Cr     0.10833883    1.90409970   -1.68300613      10
Ni    -1.67665058    0.01689389    1.75004179      11
Co    -1.69526030    1.91310765    0.09867293      12
Co     1.81252187   -1.89809669    0.05631686      13
Co     1.86913146    1.95597258   -0.03261879      14
Co     0.95072755    0.05488130    1.00244209      15
Co     0.01388946   -1.88758287    1.88703738      16
Cr     0.04895525    1.92533213    1.72679179      17
Cr    -0.93907228    0.00626286   -0.87502446      18
          18
Lattice="  24.8920   0.0000   0.0000   0.0000  24.8920   0.0000   0.0000   0.0000  24.8920 " ConfE="      -5939.7401" DelE="         -0.1256"
Co     0.06982139    0.00493463   -3.47778480       1
Ni     3.60983029    0.00198961    0.07352801       2
Cr    -3.48461391   -0.05045637    0.06477603       3
Co     0.10033357   -3.51274069    0.11409551       4
Cr     0.03393497    3.56611204    0.05950237       5
Cr     0.12426134   -0.00108182    3.49774514       6
Ni     0.06120925   -1.76197239   -1.66756871       7
Ni     1.85654260   -0.02716799   -1.71342246       8
Co    -1.71471694   -1.74875077    0.10354149       9
Cr     0.06197609    1.76968701   -1.67423347      10
Ni    -1.74402176    0.01867200    1.82684327      11
Co    -1.69103147    1.78524398    0.06644062      12
Co     1.84244370   -1.78675283    0.10264972      13
Co     1.85841921    1.80778604    0.02758150      14
Co     0.12630140    0.04413754    0.13635118      15
Co     0.10273563   -1.69089010    1.88964233      16
Cr     0.14215697    1.74473733    1.75223709      17
Cr    -1.67026421    0.00354932   -1.66630857      18
