          23
Lattice="  24.8920   0.0000   0.0000   0.0000  24.8920   0.0000   0.0000   0.0000  24.8920 " ConfE="      -5942.9405" DelE="          0.0000"
Co     2.66328580   -0.07098119   -2.56015527       1
Ni    -2.57285111   -0.11595361    2.66292367       2
Co     2.65598256    1.69127501   -0.84373764       3
Co     0.91125381    1.67052512   -2.59402160       4
Ni     0.93393003   -1.91857896   -2.61270823       5
Ni     2.66104160   -1.88509884   -0.86174860       6
Co    -0.86624701    1.72022460    2.69556565       7
Ni    -2.53738958    1.65373449    0.88400375       8
Ni    -0.84178319   -1.89126062    2.69448989       9
Ni    -2.57189312   -1.86408760    0.90442836      10
Co     0.95251281    3.53125208   -0.87148682      11
Co     0.93463772   -3.74517901   -0.84480912      12
Ni    -0.86693506   -3.71052579    0.93327942      13
Cr    -0.80677555    3.48718853    0.88649288      14
Cr     2.57078912    0.00319538    0.76812971      15
Ni    -0.78292945   -0.13015801   -2.53046626      16
Co    -2.55503122   -0.07193080   -0.85701948      17
Ni     0.86057815   -0.05919871    2.59179956      18
Ni     0.00000000    0.00000000    0.00000000      19
Co     0.90862525    1.91097045    0.93617923      20
Cr    -0.82254513    1.89423964   -0.99337650      21
Ni    -0.85714835   -2.04054515   -0.87163793      22
Co     0.99824380   -1.96450432    0.95624228      23
          23
Lattice="  24.8920   0.0000   0.0000   0.0000  24.8920   0.0000   0.0000   0.0000  24.8920 " ConfE="      -5942.8938" DelE="          0.0468"
Co     2.67767627   -0.07074597   -2.57407934       1
Ni    -2.58836511   -0.12209739    2.67929237       2
Co     2.65575668    1.67329397   -0.84412153       3
Co     0.91290829    1.65198622   -2.58511725       4
Ni     0.93343648   -1.90175479   -2.60101258       5
Ni     2.65346498   -1.86468775   -0.85535277       6
Co    -0.85720471    1.70392794    2.68346327       7
Ni    -2.50653154    1.61385050    0.86671726       8
Ni    -0.85058346   -1.89757018    2.71860311       9
Ni    -2.57355892   -1.86007897    0.90506172      10
Co     0.95678002    3.52766893   -0.87337144      11
Co     0.93454654   -3.73895882   -0.83838364      12
Ni    -0.86437415   -3.69452408    0.93615153      13
Cr    -0.79964476    3.46919161    0.87832905      14
Cr     2.55389088   -0.00142518    0.77792094      15
Ni    -0.78887044   -0.13084409   -2.52207226      16
Co    -2.59553704   -0.08221753   -0.88448420      17
Ni     0.86892904   -0.06478582    2.62345425      18
Ni    -0.29938274    0.04059365    0.24301986      19
Co     0.94495629    1.88000543    0.91211807      20
Cr    -0.80626848    1.88496886   -1.02042385      21
Ni    -0.84444821   -2.01444255   -0.86773063      22
Co     0.98439893   -1.91872010    0.94574416      23
          23
Lattice="  24.8920   0.0000   0.0000   0.0000  24.8920   0.0000   0.0000   0.0000  24.8920 " ConfE="      -5943.2686" DelE="         -0.3280"
Co     2.68519208   -0.06782791   -2.59422997       1
Ni    -2.60734469   -0.11132082    2.68878041       2
Co     2.67259086    1.65934823   -0.85853086       3
Co     0.90628652    1.64785941   -2.58701134       4
Ni     0.93737256   -1.89062483   -2.62708395       5
Ni     2.66632350   -1.86264446   -0.88490349       6
Co    -0.86403247    1.70561551    2.68190749       7
Ni    -2.59435932    1.66336250    0.89171395       8
Ni    -0.84784353   -1.86796491    2.70450209       9
Ni    -2.59237630   -1.85512597    0.90009831      10
Co     0.94543243    3.50358953   -0.85847615      11
Co     0.92811679   -3.71130993   -0.84584526      12
Ni    -0.85404047   -3.64699334    0.91906021      13
Cr    -0.80318923    3.43974345    0.86482618      14
Cr     2.61258207   -0.03641994    0.79471009      15
Ni    -0.80494409   -0.11387643   -2.57201594      16
Co    -2.62433415   -0.06731511   -0.89584467      17
Ni     0.90572954   -0.07778485    2.68567470      18
Ni    -0.77892812   -0.05054707    0.81515088      19
Co     0.91578797    1.68572109    0.84431140      20
Cr    -0.77298329    1.72172759   -0.90227091      21
Ni    -0.79625101   -1.87208200   -0.84441635      22
Co     0.99236847   -1.83340916    0.91454176      23
