          18
Lattice="  24.8920   0.0000   0.0000   0.0000  24.8920   0.0000   0.0000   0.0000  24.8920 " ConfE="      -5929.3663" DelE="          0.0000"
Ni     0.01710225   -3.55999547   -0.04798075       1
Co     3.41551396   -0.05447700   -0.06075812       2
Cr    -0.04064229    3.56832312   -0.03003453       3
Co    -3.60521650   -0.05752588   -0.03663789       4
Cr    -0.11924057   -0.01562339   -3.57323941       5
Cr    -0.04369170    0.13159011    3.39785206       6
Ni     0.00632581   -1.78817735   -1.76673658       7
Ni    -0.03559573   -1.77807058    1.71245594       8
Cr     1.70510702    0.00629527   -1.74973753       9
Co     1.66941286   -0.02557508    1.64362924      10
Ni    -1.83140764   -1.79178179   -0.02269835      11
Ni     1.71225101    1.81723753   -0.02192660      12
Ni    -1.83911102    1.75817154   -0.03101778      13
Co    -1.83063496   -0.02014252   -1.81573373      14
Co    -1.83044668   -0.02206919    1.74891736      15
Co    -0.06352536    1.75251278   -1.81464887      16
Co    -0.07718962    1.80489333    1.72947141      17
Cr     0.00000000    0.00000000    0.00000000      18
          18
Lattice="  24.8920   0.0000   0.0000   0.0000  24.8920   0.0000   0.0000   0.0000  24.8920 " ConfE="      -5928.4917" DelE="          0.8746"
Ni     0.05013142   -3.48743794   -0.05463392       1
Co     3.41948127   -0.06370040   -0.04133753       2
Cr    -0.02955261    3.52585059    0.00598689       3
Co    -3.60360914   -0.07084584   -0.03414143       4
Cr    -0.12575051   -0.00496159   -3.65831791       5
Cr    -0.07127208    0.14591903    3.56190242       6
Ni    -0.05434971   -1.82804402   -1.93490899       7
Ni    -0.05978481   -1.77601638    1.84973777       8
Cr     1.72354130    0.04297203   -1.91842152       9
Co     1.71682206    0.03882624    1.82662206      10
Ni    -1.73794631   -1.73159240   -0.02759968      11
Ni     1.69263297    1.72690704   -0.01269172      12
Ni    -1.78406109    1.69466599   -0.02305386      13
Co    -1.79032712   -0.02640404   -1.83034157      14
Co    -1.78712656   -0.03651696    1.76856159      15
Co    -0.03141255    1.68066038   -1.79179363      16
Co    -0.06134422    1.73594203    1.74605072      17
Cr     0.83630770   -0.77984223   -0.04116022      18
          18
Lattice="  24.8920   0.0000   0.0000   0.0000  24.8920   0.0000   0.0000   0.0000  24.8920 " ConfE="      -5929.2790" DelE="          0.0873"
Ni    -0.02684610   -3.57963560   -0.03968830       1
Co     3.51355122   -0.01860343   -0.03427777       2
Cr    -0.04156652    3.54660553   -0.00090129       3
Co    -3.63611984   -0.05435673   -0.03919576       4
Cr    -0.13510343   -0.00829350   -3.59663829       5
Cr    -0.06470141    0.15532164    3.47370468       6
Ni    -0.03816227   -1.76265651   -1.77407617       7
Ni    -0.07745007   -1.73142769    1.72472289       8
Cr     1.66902174    0.01643729   -1.74311599       9
Co     1.66388692   -0.01712264    1.65389913      10
Ni    -1.81149479   -1.74676052   -0.02429583      11
Ni     1.68440190    1.75327232   -0.01961626      12
Ni    -1.81800175    1.72827989   -0.02690597      13
Co    -1.82887547   -0.01001538   -1.82821553      14
Co    -1.83287696   -0.01916230    1.75539241      15
Co    -0.05767232    1.71215716   -1.79669192      16
Co    -0.07936005    1.76287667    1.74057879      17
Cr     1.69715767   -1.67840318    0.02305962      18
