          18
Lattice="  24.8920   0.0000   0.0000   0.0000  24.8920   0.0000   0.0000   0.0000  24.8920 " ConfE="      -5940.8289" DelE="          0.0000"
Cr    -3.47373210    0.08161230   -0.03688162       1
Co     0.02403597   -3.55198844   -0.01196240       2
Cr     3.59894666    0.00711085    0.00126236       3
Cr     0.11426377    3.57075102   -0.03826822       4
Co     0.03622750    0.00807890   -3.61548630       5
Ni     0.02064253    0.00722332    3.52784406       6
Ni    -1.72360475   -0.00820849   -1.80450388       7
Cr    -1.72928918    0.00096124    1.70949199       8
Cr    -0.05198977   -1.80744486   -1.74663500       9
Cr    -0.09500015   -1.76169459    1.67237594      10
Cr    -1.69511270    1.87165282   -0.08876298      11
Ni     1.82109733   -1.77655201   -0.00015992      12
Co     1.83190033    1.75895688   -0.06231679      13
Cr     0.04960556    1.79062140   -1.83590865      14
Co     0.03034835    1.80417770    1.74300208      15
Cr     1.73097410   -0.02565097   -1.83893344      16
Cr     1.85277081    0.10575943    1.77526029      17
Co     0.00000000    0.00000000    0.00000000      18
          18
Lattice="  24.8920   0.0000   0.0000   0.0000  24.8920   0.0000   0.0000   0.0000  24.8920 " ConfE="      -5940.1602" DelE="          0.6687"
Cr    -3.41144272   -0.20555871   -0.01307611       1
Co     0.01737773   -3.51939931   -0.02246501       2
Cr     3.60906741   -0.00106726    0.00159539       3
Cr     0.05529671    3.55824007   -0.03692133       4
Co     0.04819513    0.05771753   -3.68501107       5
Ni     0.03992688    0.03289301    3.60346750       6
Ni    -1.75528081    0.03028786   -1.96001357       7
Cr    -1.71477446    0.01782695    1.82009227       8
Cr     0.03582103   -1.81541183   -1.99825479       9
Cr     0.08858298   -1.75892845    1.88877048      10
Cr    -1.68678417    1.67505196   -0.07091634      11
Ni     1.74713507   -1.74940936   -0.03079847      12
Co     1.78948127    1.72553073   -0.06063688      13
Cr     0.01018703    1.72915055   -1.77997965      14
Co     0.02180228    1.72732608    1.70594404      15
Cr     1.67596543   -0.01450881   -1.77517217      16
Cr     1.77727634    0.07346809    1.72041554      17
Co    -0.94632856   -1.09271020   -0.02327132      18
          18
Lattice="  24.8920   0.0000   0.0000   0.0000  24.8920   0.0000   0.0000   0.0000  24.8920 " ConfE="      -5940.8641" DelE="         -0.0352"
Cr    -3.51457738    0.04416258   -0.02434190       1
Co     0.05840172   -3.57162563   -0.01066922       2
Cr     3.63485060    0.01419454    0.00585920       3
Cr     0.09419959    3.57572566   -0.03900792       4
Co     0.04365376    0.02664169   -3.64399220       5
Ni     0.02698445    0.02239055    3.57405032       6
Ni    -1.71213708   -0.00596531   -1.81613756       7
Cr    -1.68898825   -0.00592694    1.69590029       8
Cr     0.02920332   -1.75634787   -1.80092530       9
Cr     0.02175157   -1.68897718    1.71451096      10
Cr    -1.67976581    1.77246234   -0.06973448      11
Ni     1.79658366   -1.74478500   -0.01282605      12
Co     1.80246071    1.72469206   -0.06314631      13
Cr     0.03546979    1.74084476   -1.78781204      14
Co     0.02417430    1.73644778    1.69630503      15
Cr     1.71776554   -0.00244476   -1.79317334      16
Cr     1.80516550    0.09326493    1.73718129      17
Co    -1.70582233   -1.75264725   -0.03767081      18
