          18
Lattice="  24.8920   0.0000   0.0000   0.0000  24.8920   0.0000   0.0000   0.0000  24.8920 " ConfE="      -5926.5722" DelE="          0.0000"
Cr    -0.02817879    0.04768007    3.43690603       1
Cr    -0.04270381    3.55089436   -0.02764997       2
Co     3.57627328    0.01895688   -0.04203458       3
Cr    -3.53001723    0.01822141   -0.08561516       4
Cr     0.03382690   -0.00644051   -3.55967305       5
Cr     0.01333951   -3.52476566   -0.08222075       6
Ni     1.80086032   -0.03570701    1.74165314       7
Ni     0.00150903   -1.81822566    1.73294048       8
Cr     1.69778096    1.76482335    0.08531978       9
Co    -1.74037589    1.82162896   -0.00909430      10
Cr    -1.74805582    0.09959550    1.73045234      11
Cr    -0.00470255    1.79736724   -1.82008389      12
Co     1.79556238   -1.81496938   -0.07325338      13
Cr    -1.78383294    0.06113068   -1.83765507      14
Co    -0.01757527   -1.74721658   -1.82639133      15
Co     1.78697389    0.02471643   -1.79800866      16
Cr    -1.79513308   -1.76407414   -0.04783454      17
Ni     0.00000000    0.00000000    0.00000000      18
          18
Lattice="  24.8920   0.0000   0.0000   0.0000  24.8920   0.0000   0.0000   0.0000  24.8920 " ConfE="      -5926.1202" DelE="          0.4521"
Cr    -0.02581083    0.10091879    3.31979599       1
Cr    -0.04838899    3.49733844   -0.01451398       2
Co     3.65170352    0.00250259   -0.06051531       3
Cr    -3.66986346   -0.00368000   -0.11425241       4
Cr     0.00923032   -0.01603171   -3.55828395       5
Cr     0.01777354   -3.52132233   -0.08597934       6
Ni     1.95158670   -0.03766999    1.71967703       7
Ni     0.01936569   -1.71238222    1.64847961       8
Cr     1.94399933    1.78911969   -0.20465967       9
Co    -1.97590936    1.88592184   -0.06078727      10
Cr    -1.92963298    0.00107745    1.65744123      11
Cr    -0.05067208    1.74820150   -1.76226605      12
Co     1.80747848   -1.77779899   -0.08045860      13
Cr    -1.78090206    0.07476446   -1.66671032      14
Co    -0.02957532   -1.65087942   -1.74823410      15
Co     1.79735127    0.01822855   -1.77797851      16
Cr    -1.78945754   -1.75395232   -0.05655294      17
Ni     0.01547736    0.84206490    0.70908251      18
          18
Lattice="  24.8920   0.0000   0.0000   0.0000  24.8920   0.0000   0.0000   0.0000  24.8920 " ConfE="      -5926.7584" DelE="         -0.1861"
Cr    -0.07304398   -0.01067935    3.46587119       1
Cr    -0.03938958    3.62718275   -0.05143199       2
Co     3.61093412   -0.00098912   -0.04893077       3
Cr    -3.61902552    0.00501749   -0.10304502       4
Cr     0.00454572   -0.01311973   -3.56000320       5
Cr     0.03693108   -3.56264471   -0.09334030       6
Ni     1.77880143   -0.02867091    1.70108678       7
Ni     0.01048781   -1.78354279    1.67093422       8
Cr     1.72081673    1.68290292   -0.09201854       9
Co    -1.79404422    1.83588190   -0.06057332      10
Cr    -1.74749598   -0.03110949    1.51098793      11
Cr    -0.03605698    1.77061732   -1.76762759      12
Co     1.78357520   -1.80494947   -0.08272385      13
Cr    -1.75416869    0.05595502   -1.69103396      14
Co    -0.02477876   -1.70695643   -1.77834774      15
Co     1.75250265    0.00820357   -1.76889347      16
Cr    -1.75976782   -1.80224070   -0.10227232      17
Ni    -0.01693194    1.74789065    1.67496326      18
