          18
Lattice="  24.8920   0.0000   0.0000   0.0000  24.8920   0.0000   0.0000   0.0000  24.8920 " ConfE="      -5949.8379" DelE="          0.0000"
Ni     0.00193810    0.02415083   -3.48147757       1
Ni     3.53796791   -0.00353030    0.03077121       2
Ni    -0.02089272   -0.04943308    3.60492653       3
Ni     0.00637408   -3.60036095    0.05985448       4
Cr     0.01054157    3.49187101   -0.01036234       5
Cr    -3.56976909    0.00575863    0.01832406       6
Ni    -1.74722873    0.01695403   -1.71891609       7
Co    -1.75259775    1.74827961    0.04145079       8
Co     1.74062775    0.01909273   -1.73724863       9
Ni    -0.00663984    1.74155479    1.82644551      10
Co     1.70795322    1.74673428   -0.00412369      11
Ni     1.77168712   -0.01998257    1.80951956      12
Co    -1.80491092   -1.81738335    0.03253293      13
Cr    -1.78191450   -0.06987874    1.77194399      14
Cr     0.02105688   -1.83514370   -1.73076626      15
Cr     1.77668313   -1.77314528   -0.00351288      16
Co    -0.01029619   -1.79556213    1.78824600      17
Cr     0.00000000    0.00000000    0.00000000      18
          18
Lattice="  24.8920   0.0000   0.0000   0.0000  24.8920   0.0000   0.0000   0.0000  24.8920 " ConfE="      -5949.2794" DelE="          0.5585"
Ni    -0.00910881    0.00141126   -3.44198365       1
Ni     3.58655393   -0.01657135    0.03845634       2
Ni    -0.02001135   -0.04070861    3.58733821       3
Ni     0.00135685   -3.61074523    0.05224327       4
Cr    -0.01144384    3.54235301    0.02964964       5
Cr    -3.63471672   -0.02430792    0.05317753       6
Ni    -1.87147218   -0.04698115   -1.72941364       7
Co    -1.86299666    1.75322121    0.06019474       8
Co     1.87603532   -0.04473650   -1.75726947       9
Ni     0.00161341    1.70886237    1.72529798      10
Co     1.89322992    1.78998568    0.08183629      11
Ni     1.75999517   -0.01968936    1.76775011      12
Co    -1.77740535   -1.77739732    0.03556671      13
Cr    -1.72820072   -0.06099596    1.67345537      14
Cr     0.00793343   -1.80479753   -1.69631771      15
Cr     1.68861492   -1.69335800   -0.01371866      16
Co    -0.01944136   -1.75396790    1.74398951      17
Cr     0.06004483    0.92824617   -0.88008106      18
          18
Lattice="  24.8920   0.0000   0.0000   0.0000  24.8920   0.0000   0.0000   0.0000  24.8920 " ConfE="      -5950.0167" DelE="         -0.1788"
Ni     0.00059243   -0.02389107   -3.52291067       1
Ni     3.56301808   -0.00925891    0.03814757       2
Ni    -0.01809386   -0.05012249    3.60400818       3
Ni     0.00810488   -3.62101651    0.05869218       4
Cr    -0.01825454    3.56562720    0.05505459       5
Cr    -3.58758909   -0.00239649    0.03069153       6
Ni    -1.72814012   -0.02800611   -1.67119188       7
Co    -1.76419271    1.72230199    0.06467365       8
Co     1.72089549   -0.02691837   -1.68025076       9
Ni    -0.00605525    1.69906325    1.76139439      10
Co     1.73654281    1.74695184    0.01920904      11
Ni     1.75809227   -0.02934120    1.77758008      12
Co    -1.78954359   -1.80777774    0.05090091      13
Cr    -1.76228311   -0.10161146    1.74997129      14
Cr     0.03241563   -1.79318874   -1.67685372      15
Cr     1.74801051   -1.75641212    0.00375010      16
Co    -0.01561397   -1.76953968    1.75193846      17
Cr    -0.00368916    1.73772017   -1.67837651      18
