          18
Lattice="  24.8920   0.0000   0.0000   0.0000  24.8920   0.0000   0.0000   0.0000  24.8920 " ConfE="      -5938.0692" DelE="          0.0000"
Ni     0.03360196   -3.55598711    0.02775991       1
Cr    -3.41243203    0.04366164    0.03075022       2
Cr    -0.01976859    0.02931520   -3.50685364       3
Ni     0.04909695    0.00293580    3.59666851       4
Cr     3.58640443    0.04719152   -0.03812765       5
Cr     0.00424101    3.50136746    0.01412928       6
Ni    -1.72458737   -1.75011820    0.02797776       7
Cr    -0.02872944   -1.69991012   -1.76580216       8
Ni     1.79166262   -0.03492743   -1.77320587       9
Co    -0.00106393    1.72168076   -1.78203790      10
Co    -1.77856416    1.71095122   -0.03559336      11
Ni     1.77240013    1.78312636   -0.00730706      12
Co    -1.74590080   -0.01127566    1.81813140      13
Cr     0.03436815   -1.71991988    1.80720268      14
Cr     1.78086948   -1.75832941    0.02360151      15
Co     0.03473565    1.76777077    1.79055139      16
Co     1.86865306    0.03171737    1.77659985      17
Co     0.00000000    0.00000000    0.00000000      18
          18
Lattice="  24.8920   0.0000   0.0000   0.0000  24.8920   0.0000   0.0000   0.0000  24.8920 " ConfE="      -5937.5791" DelE="          0.4901"
Ni     0.03118455   -3.60371724    0.04248016       1
Cr    -3.31989361    0.02527981    0.00469369       2
Cr    -0.07077081    0.02050491   -3.46629044       3
Ni     0.05370472    0.01237245    3.61882412       4
Cr     3.58239587    0.03861855   -0.06167045       5
Cr     0.02688200    3.57719027    0.01015031       6
Ni    -1.76771263   -1.90905963    0.08522291       7
Cr    -0.00961756   -1.85369203   -1.83272195       8
Ni     1.71971104   -0.01807566   -1.77323414       9
Co     0.05038618    1.89878176   -1.82848057      10
Co    -1.74352836    1.87222192    0.01047581      11
Ni     1.70946885    1.75505374   -0.01596027      12
Co    -1.64278833   -0.00856844    1.71178627      13
Cr     0.00733841   -1.67958941    1.78443710      14
Cr     1.57916525   -1.64740650    0.00391871      15
Co     0.05394029    1.78906836    1.79757440      16
Co     1.83891422    0.03465925    1.75847418      17
Co    -0.62157263   -0.04576790   -0.72317994      18
          18
Lattice="  24.8920   0.0000   0.0000   0.0000  24.8920   0.0000   0.0000   0.0000  24.8920 " ConfE="      -5938.1680" DelE="         -0.0987"
Ni     0.03589589   -3.57764058    0.03556295       1
Cr    -3.43419551    0.03262318    0.05361334       2
Cr     0.00884613    0.03120732   -3.57019733       3
Ni     0.05295086    0.00293721    3.61233134       4
Cr     3.60914640    0.04473779   -0.04720588       5
Cr     0.01390117    3.54512434    0.02256175       6
Ni    -1.69397056   -1.75052372    0.04464576       7
Cr    -0.01311697   -1.69426082   -1.72071244       8
Ni     1.73076504   -0.02376983   -1.73497647       9
Co     0.02466439    1.75998969   -1.75856705      10
Co    -1.72867238    1.72833148   -0.00297537      11
Ni     1.74327888    1.75991276   -0.00012665      12
Co    -1.67379996   -0.01468478    1.76183321      13
Cr     0.04606344   -1.67226127    1.76459524      14
Cr     1.75215839   -1.73308572    0.03131393      15
Co     0.04855498    1.74776763    1.77084380      16
Co     1.86228345    0.02477846    1.76339725      17
Co    -1.66133265   -0.01432630   -1.74817164      18
