          18
Lattice="  24.8920   0.0000   0.0000   0.0000  24.8920   0.0000   0.0000   0.0000  24.8920 " ConfE="      -5929.5960" DelE="          0.0000"
Ni    -0.03486852    0.02085674    3.53762761       1
Ni    -0.03167837    3.60160274    0.01772210       2
Co     0.00697250   -3.57365709   -0.02873212       3
Co     3.51877580    0.00938642    0.00636397       4
Co    -3.56810637    0.03728557    0.01966583       5
Cr    -0.00938010   -0.01764101   -3.52007557       6
Ni     1.69227625   -0.00734727    1.76925421       7
Ni    -1.73803197   -1.73627186    0.04192047       8
Co    -1.83769105    0.03556938    1.78442201       9
Ni    -1.77201642    0.01793378   -1.74870394      10
Co     1.76490180   -1.80162834   -0.01058924      11
Ni    -0.02847883    1.82467069    1.79420989      12
Ni     1.74270530    1.81176273    0.00820468      13
Ni    -0.02097868    1.79471405   -1.73886754      14
Cr     1.75158258   -0.02655084   -1.70635024      15
Co    -0.00730927   -1.77652766   -1.79184345      16
Co    -1.82045472    1.79301512    0.02800745      17
Co     0.00000000    0.00000000    0.00000000      18
          18
Lattice="  24.8920   0.0000   0.0000   0.0000  24.8920   0.0000   0.0000   0.0000  24.8920 " ConfE="      -5928.8059" DelE="          0.7901"
Ni    -0.03262070    0.01299015    3.51057969       1
Ni    -0.02847549    3.59480291    0.02250992       2
Co     0.00051676   -3.48632056    0.00468987       3
Co     3.57546209    0.02301426    0.01404894       4
Co    -3.61978098    0.06503470   -0.00493992       5
Cr    -0.01717060   -0.02917809   -3.56203010       6
Ni     1.84655583    0.06294654    1.84488183       7
Ni    -1.93726318   -1.76811042   -0.02732815       8
Co    -1.94005449    0.07032114    1.80439062       9
Ni    -1.73173933    0.00110899   -1.70313431      10
Co     1.92627273   -1.82705974   -0.04606466      11
Ni    -0.03080939    1.77551670    1.77841976      12
Ni     1.72178881    1.74916316    0.02218790      13
Ni    -0.01032024    1.73492414   -1.70094736      14
Cr     1.75237747   -0.04528250   -1.69412044      15
Co     0.02731024   -1.71940490   -1.71211243      16
Co    -1.82040626    1.77412796    0.03234536      17
Co    -0.01535799   -0.83165926    0.79531547      18
          18
Lattice="  24.8920   0.0000   0.0000   0.0000  24.8920   0.0000   0.0000   0.0000  24.8920 " ConfE="      -5929.4171" DelE="          0.1789"
Ni    -0.03246430    0.04889779    3.57941287       1
Ni    -0.03536791    3.61013178    0.00971937       2
Co     0.00326259   -3.58450985   -0.03584522       3
Co     3.54037803    0.01834781    0.01000308       4
Co    -3.58154823    0.04336356    0.00679815       5
Cr    -0.00948084   -0.02088705   -3.57747704       6
Ni     1.68188411    0.03644310    1.74345502       7
Ni    -1.74498208   -1.71252748    0.00176139       8
Co    -1.83824610    0.04683343    1.77833914       9
Ni    -1.72496033    0.01360940   -1.72999039      10
Co     1.76777090   -1.76433988   -0.03772531      11
Ni    -0.04343118    1.80354101    1.77536199      12
Ni     1.71419413    1.78193404   -0.00198657      13
Ni    -0.01244235    1.74936794   -1.72095531      14
Cr     1.77007961   -0.01740761   -1.74648679      15
Co     0.02520511   -1.73265404   -1.75499757      16
Co    -1.82117038    1.78355889    0.02452218      17
Co    -0.02981957   -1.68992881    1.72162757      18
