          18
Lattice="  24.8920   0.0000   0.0000   0.0000  24.8920   0.0000   0.0000   0.0000  24.8920 " ConfE="      -5948.6459" DelE="          0.0000"
Ni    -3.44899420    0.03308879   -0.01212549       1
Ni     0.03883780    0.04081238   -3.49223249       2
Co     3.61348376    0.02310701    0.03651731       3
Co     0.02826467    0.01417229    3.64527455       4
Cr     0.03742747   -3.45248456    0.04179995       5
Cr    -0.02990863    3.57334773    0.04200128       6
Cr    -1.65586928   -1.65835413   -0.00376244       7
Co    -1.73323792    1.82102932    0.04841610       8
Co     0.00377951   -1.69766834   -1.74115318       9
Ni     0.02259890    1.78182056   -1.73096470      10
Co    -1.74790863    0.00327274    1.85088135      11
Cr     1.85241517    0.02544463   -1.71547819      12
Co     1.85378645    0.01590733    1.79489199      13
Ni     0.04481762   -1.73922048    1.84153627      14
Ni     0.04389876    1.78929361    1.81982076      15
Cr     1.76548872   -1.69072369    0.04719045      16
Ni     1.80146832    1.80092893    0.04633460      17
Co     0.00000000    0.00000000    0.00000000      18
          18
Lattice="  24.8920   0.0000   0.0000   0.0000  24.8920   0.0000   0.0000   0.0000  24.8920 " ConfE="      -5948.1149" DelE="          0.5310"
Ni    -3.43758083    0.04714241   -0.00006232       1
Ni     0.02538278    0.04083137   -3.46739777       2
Co     3.60187895    0.01577761    0.03250377       3
Co     0.02313255    0.01729427    3.63303965       4
Cr     0.06825423   -3.52883262    0.05607725       5
Cr     0.00246184    3.65784977    0.05682350       6
Cr    -1.70478620   -1.84381189    0.08771428       7
Co    -1.77006320    1.99482411    0.10311415       8
Co     0.06638041   -1.83377552   -1.79520041       9
Ni     0.04783360    1.90007429   -1.73795384      10
Co    -1.70343553    0.02174537    1.77596098      11
Cr     1.68723611    0.02726350   -1.60997375      12
Co     1.83194107    0.00956990    1.76380298      13
Ni     0.04123932   -1.72720185    1.79815185      14
Ni     0.04121726    1.78699480    1.78329791      15
Cr     1.70377240   -1.67492691    0.02849957      16
Ni     1.77238228    1.80028840    0.04552258      17
Co    -0.96485285   -0.01625977   -0.79534085      18
          18
Lattice="  24.8920   0.0000   0.0000   0.0000  24.8920   0.0000   0.0000   0.0000  24.8920 " ConfE="      -5948.6517" DelE="         -0.0058"
Ni    -3.52306971    0.04284448    0.03594781       1
Ni     0.05667438    0.04018713   -3.52000972       2
Co     3.62903593    0.02051918    0.03751546       3
Co     0.02910713    0.01332699    3.65344389       4
Cr     0.04558430   -3.49079367    0.07323804       5
Cr    -0.01652780    3.60483590    0.05778975       6
Cr    -1.59275749   -1.59730301    0.03476079       7
Co    -1.72337787    1.81595334    0.07082951       8
Co     0.05486544   -1.68143974   -1.67719450       9
Ni     0.04534358    1.77829765   -1.69930535      10
Co    -1.72683910    0.00246022    1.80177917      11
Cr     1.80362430    0.02035330   -1.68500009      12
Co     1.85339410    0.00516030    1.77801395      13
Ni     0.05329013   -1.71730296    1.82329274      14
Ni     0.04804980    1.76640039    1.79914480      15
Cr     1.72217965   -1.65006155    0.04775125      16
Ni     1.78435021    1.76967881    0.04743318      17
Co    -1.70422689    0.01136808   -1.67103273      18
