          18
Lattice="  24.8920   0.0000   0.0000   0.0000  24.8920   0.0000   0.0000   0.0000  24.8920 " ConfE="      -5934.8309" DelE="          0.0000"
Ni    -0.03877471   -3.49772623   -0.00723760       1
Co    -3.50643362    0.02211548    0.03346604       2
Cr    -0.00472474    3.58485814   -0.02268708       3
Ni     3.51431694    0.05125378    0.00418315       4
Cr    -0.08331468    0.05130005   -3.49289785       5
Co    -0.04570269    0.04760926    3.52235088       6
Co    -0.02424772   -1.77923663   -1.78576923       7
Ni    -0.06760116   -1.73786625    1.74767558       8
Cr    -1.80817517   -0.18181080   -1.55636345       9
Cr    -1.79385205   -0.01526659    1.66380098      10
Ni     1.78008852   -1.79417942    0.00792421      11
Cr    -1.79133959    1.86263064   -0.05088484      12
Co     1.71846715    1.82461344   -0.03185103      13
Ni     1.76556684    0.01547871   -1.77058916      14
Co     1.69898007    0.06311071    1.76086923      15
Co    -0.08738022    1.78950114   -1.77721969      16
Cr    -0.00558927    1.79436789    1.78623878      17
Cr     0.00000000    0.00000000    0.00000000      18
          18
Lattice="  24.8920   0.0000   0.0000   0.0000  24.8920   0.0000   0.0000   0.0000  24.8920 " ConfE="      -5934.1609" DelE="          0.6700"
Ni    -0.05426900   -3.45833255   -0.00209602       1
Co    -3.46691082    0.04495497    0.00355112       2
Cr    -0.03683925    3.54502757   -0.02357049       3
Ni     3.51398454    0.05005031   -0.00033980       4
Cr     0.02070264    0.08198678   -3.65389825       5
Co    -0.02347266    0.06133453    3.59443098       6
Co     0.00606207   -1.77619078   -1.90205956       7
Ni    -0.01034984   -1.74660753    1.87568985       8
Cr    -1.80102285   -0.00232131   -2.00996516       9
Cr    -1.83333889    0.10875690    1.97935742      10
Ni     1.69372406   -1.73298386    0.00906614      11
Cr    -1.75877866    1.75084999   -0.10698704      12
Co     1.68883009    1.79145787   -0.04445673      13
Ni     1.71178985    0.01430840   -1.75703889      14
Co     1.66186747    0.05335082    1.74280316      15
Co    -0.07986989    1.74345266   -1.76685930      16
Cr     0.03215839    1.62058000    1.62327493      17
Cr    -1.08799581   -0.93680622   -0.01152662      18
          18
Lattice="  24.8920   0.0000   0.0000   0.0000  24.8920   0.0000   0.0000   0.0000  24.8920 " ConfE="      -5934.6144" DelE="          0.2165"
Ni    -0.02300805   -3.50637110    0.00236847       1
Co    -3.54049682    0.04472883    0.01868062       2
Cr    -0.04996763    3.54468916   -0.01888435       3
Ni     3.52060167    0.05852886    0.00007408       4
Cr    -0.00732134    0.05316559   -3.60234733       5
Co    -0.01145882    0.06128599    3.59246563       6
Co    -0.02647019   -1.75166831   -1.80669170       7
Ni    -0.03106055   -1.67480663    1.77051569       8
Cr    -1.75347815   -0.05230730   -1.85572928       9
Cr    -1.74983841    0.09867605    1.87384825      10
Ni     1.72247293   -1.73592109    0.00630101      11
Cr    -1.65007661    1.54324087   -0.06426278      12
Co     1.69690451    1.79266327   -0.03048737      13
Ni     1.72630297    0.02261057   -1.75769973      14
Co     1.69826930    0.08198766    1.77226139      15
Co    -0.05428464    1.77580344   -1.77649412      16
Cr     0.08810277    1.71136249    1.70963538      17
Cr    -1.73614429   -1.59704697    0.01807724      18
