          18
Lattice="  24.8920   0.0000   0.0000   0.0000  24.8920   0.0000   0.0000   0.0000  24.8920 " ConfE="      -5940.5270" DelE="          0.0000"
Cr     3.51177324    0.06224044   -0.03965404       1
Co     0.04192259    3.54395907   -0.00599411       2
Co    -0.02878015   -3.48525777    0.01945177       3
Cr    -3.58144868    0.03291003   -0.03929226       4
Cr    -0.01524056    0.07108265    3.53202752       5
Cr    -0.04070119    0.01287564   -3.58563353       6
Ni     1.76622350    0.08561016    1.70526637       7
Ni     0.00944237    1.77729569   -1.79024125       8
Ni    -1.81181753    1.79799073   -0.03761147       9
Co     1.78190465    0.08795860   -1.72504083      10
Co    -0.00517617    1.79408619    1.72964031      11
Ni    -1.79988738   -1.73450330   -0.02649246      12
Ni    -0.00277087   -1.72305711   -1.80571680      13
Co     1.77453680   -1.74605117   -0.01564793      14
Co    -1.81815876    0.05125931    1.75952473      15
Cr    -0.02652988   -1.64706468    1.73155160      16
Co    -1.82285613    0.03351198   -1.80119092      17
Cr     0.00000000    0.00000000    0.00000000      18
          18
Lattice="  24.8920   0.0000   0.0000   0.0000  24.8920   0.0000   0.0000   0.0000  24.8920 " ConfE="      -5939.7428" DelE="          0.7842"
Cr     3.51310134    0.05142025   -0.01633613       1
Co     0.04347825    3.50051110   -0.01998052       2
Co    -0.01973770   -3.48391302    0.02650959       3
Cr    -3.57248942    0.05195126   -0.04520252       4
Cr    -0.02165076    0.03651894    3.62747011       5
Cr    -0.07084737   -0.00046659   -3.65674823       6
Ni     1.79035640    0.05903603    1.84117605       7
Ni    -0.04356292    1.83067790   -1.96023461       8
Ni    -1.75234338    1.78282030   -0.05095472       9
Co     1.78005474    0.03816705   -1.88169993      10
Co    -0.05042295    1.78229566    1.83867514      11
Ni    -1.74516070   -1.67869461   -0.02710409      12
Ni     0.00692945   -1.65050541   -1.76097561      13
Co     1.74173413   -1.65096196    0.01042422      14
Co    -1.75614340    0.05424910    1.74257155      15
Cr    -0.02426981   -1.54592655    1.69799099      16
Co    -1.79575292    0.05938643   -1.80526784      17
Cr     0.74476632    0.82803749   -0.07198691      18
          18
Lattice="  24.8920   0.0000   0.0000   0.0000  24.8920   0.0000   0.0000   0.0000  24.8920 " ConfE="      -5940.4863" DelE="          0.0406"
Cr     3.55843815    0.01818647   -0.02555615       1
Co     0.00273253    3.60222211   -0.02826123       2
Co    -0.02814648   -3.51692304    0.02440434       3
Cr    -3.57677676    0.03544038   -0.04268215       4
Cr    -0.01793276    0.05465476    3.56876349       5
Cr    -0.05300475    0.00416690   -3.61486592       6
Ni     1.72581020    0.04733048    1.72479601       7
Ni    -0.01403927    1.77159666   -1.81310546       8
Ni    -1.76872862    1.77421624   -0.04889743       9
Co     1.74661818    0.06065052   -1.74538351      10
Co    -0.02781483    1.76763481    1.72531131      11
Ni    -1.75531708   -1.70339641   -0.02501259      12
Ni    -0.01211897   -1.69612457   -1.78067274      13
Co     1.74355955   -1.69054137   -0.00119084      14
Co    -1.77573141    0.03921042    1.74291537      15
Cr    -0.05135564   -1.64018214    1.73796682      16
Co    -1.81664662    0.03483797   -1.80801893      17
Cr     1.74285037    1.74159049   -0.07408139      18
