          18
Lattice="  24.8920   0.0000   0.0000   0.0000  24.8920   0.0000   0.0000   0.0000  24.8920 " ConfE="      -5942.2501" DelE="          0.0000"
Co     3.41433106   -0.00320162    0.00591871       1
Co    -0.08900028    0.02964862    3.50692278       2
Co    -0.12963702   -0.03028270   -3.58799806       3
Cr    -3.61879394   -0.02981793    0.00045582       4
Co    -0.04733348    3.57875576   -0.03928849       5
Co    -0.12072641   -3.50832734   -0.12059407       6
Ni    -0.04050055    1.78576012    1.75121926       7
Ni     1.69204212   -1.77138879   -0.01023645       8
Cr     1.72407029    1.79297159    0.00436446       9
Co    -0.06621000   -1.75034971    1.75404373      10
Ni    -1.83555621    0.00378598   -1.78962311      11
Ni    -0.04252277    1.76210684   -1.79031316      12
Ni    -1.82964080    1.77591031   -0.00664237      13
Cr     1.72970028   -0.12838488   -1.90926966      14
Cr    -1.81976234   -0.06073393    1.74136597      15
Co    -1.88081984   -1.77110411   -0.05935614      16
Cr    -0.06793522   -1.80164473   -1.79843822      17
Ni     0.00000000    0.00000000    0.00000000      18
          18
Lattice="  24.8920   0.0000   0.0000   0.0000  24.8920   0.0000   0.0000   0.0000  24.8920 " ConfE="      -5941.7411" DelE="          0.5090"
Co     3.39130255   -0.01610457   -0.01166074       1
Co    -0.07961901    0.03591905    3.48009640       2
Co    -0.13388672   -0.03246804   -3.59351824       3
Cr    -3.62745420   -0.02512004    0.01760084       4
Co    -0.06034778    3.61742581   -0.04225606       5
Co    -0.12681157   -3.55966725   -0.12136412       6
Ni    -0.09281909    1.92081397    1.79450733       7
Ni     1.73368276   -1.95047435   -0.07523208       8
Cr     1.73393204    1.97490051   -0.04331317       9
Co    -0.09306186   -1.88261125    1.78209926      10
Ni    -1.79229153    0.00377532   -1.72879132      11
Ni    -0.03980323    1.75330288   -1.75837752      12
Ni    -1.81935702    1.78179085    0.01003164      13
Cr     1.67318511   -0.12762382   -1.83232215      14
Cr    -1.70744815   -0.07653600    1.66500999      15
Co    -1.82937822   -1.76063713   -0.03524206      16
Cr    -0.04203861   -1.76053359   -1.73125431      17
Ni     0.84562830    0.01026655    0.74642789      18
          18
Lattice="  24.8920   0.0000   0.0000   0.0000  24.8920   0.0000   0.0000   0.0000  24.8920 " ConfE="      -5942.2196" DelE="          0.0305"
Co     3.48081958   -0.01187006   -0.03636692       1
Co    -0.10223083    0.03805868    3.53968025       2
Co    -0.12958786   -0.02676052   -3.59878574       3
Cr    -3.63279699   -0.03296242    0.00390717       4
Co    -0.05179004    3.59905846   -0.04398042       5
Co    -0.12657274   -3.53303978   -0.12943494       6
Ni    -0.06699341    1.79758677    1.73241288       7
Ni     1.64389340   -1.74993750   -0.05197236       8
Cr     1.69463196    1.77360659   -0.03539265       9
Co    -0.10773578   -1.73366463    1.70500165      10
Ni    -1.81376262   -0.00203018   -1.76191358      11
Ni    -0.04723173    1.73060091   -1.75375916      12
Ni    -1.81781793    1.74895449    0.00314371      13
Cr     1.69513019   -0.09380318   -1.83046297      14
Cr    -1.75641463   -0.08724806    1.68028910      15
Co    -1.85772742   -1.75482421   -0.06460640      16
Cr    -0.06646144   -1.77147794   -1.79949286      17
Ni     1.67337702    0.02015084    1.69844547      18
