          18
Lattice="  24.8920   0.0000   0.0000   0.0000  24.8920   0.0000   0.0000   0.0000  24.8920 " ConfE="      -5943.5904" DelE="          0.0000"
Co    -3.46340708    0.07885268   -0.04649792       1
Co    -0.02921751    0.04897070    3.38314479       2
Ni     3.56590596    0.07280157   -0.07616074       3
Co     0.05093887    0.06260261   -3.63095613       4
Co     0.02576085   -3.46795190   -0.04724259       5
Cr     0.00421707    3.61425810   -0.10234653       6
Cr    -1.77329318   -1.65110149   -0.02456550       7
Cr    -1.74407978    1.73727607   -0.03297738       8
Co     0.01245747   -1.70667448    1.68392462       9
Ni     0.02769097    1.82855237    1.69140590      10
Co    -1.72399014    0.08740721   -1.85606547      11
Cr     1.79271000    0.07171392    1.73784867      12
Co     1.78261317    0.08374601   -1.84785710      13
Ni     0.03458867   -1.70227799   -1.82111745      14
Cr     0.07378878    1.79423378   -1.81786116      15
Ni     1.82636810   -1.70987070   -0.06415890      16
Co     1.74259483    1.81703144   -0.10549126      17
Cr     0.00000000    0.00000000    0.00000000      18
          18
Lattice="  24.8920   0.0000   0.0000   0.0000  24.8920   0.0000   0.0000   0.0000  24.8920 " ConfE="      -5943.0106" DelE="          0.5798"
Co    -3.43547540    0.08718567   -0.05274506       1
Co    -0.03115314    0.03753332    3.30877001       2
Ni     3.58176957    0.07369030   -0.08232408       3
Co     0.03928614    0.05641753   -3.62741909       4
Co     0.03569046   -3.51979951   -0.05696439       5
Cr     0.02640729    3.72772383   -0.14078349       6
Cr    -1.81654214   -1.87660747   -0.11467682       7
Cr    -1.74367561    1.98263992   -0.10808205       8
Co     0.04183180   -1.82730227    1.70934225       9
Ni     0.05215423    1.94727892    1.68011068      10
Co    -1.69152451    0.10533366   -1.76396996      11
Cr     1.74352992    0.07985173    1.69112709      12
Co     1.73969154    0.09287836   -1.81103660      13
Ni     0.01613149   -1.67001775   -1.75645004      14
Cr     0.08127053    1.71325977   -1.73271335      15
Ni     1.77622270   -1.66897046   -0.04548883      16
Co     1.70508708    1.80035236   -0.10492479      17
Cr    -0.82878851   -0.00703150    0.69297614      18
          18
Lattice="  24.8920   0.0000   0.0000   0.0000  24.8920   0.0000   0.0000   0.0000  24.8920 " ConfE="      -5943.5179" DelE="          0.0724"
Co    -3.52751657    0.06872579   -0.06728154       1
Co     0.01782646    0.04242899    3.44087132       2
Ni     3.57043182    0.07316863   -0.08527631       3
Co     0.04814210    0.05523706   -3.65386290       4
Co     0.04701107   -3.51028437   -0.06713400       5
Cr     0.02567938    3.63901255   -0.12244201       6
Cr    -1.72984199   -1.72773744   -0.09590442       7
Cr    -1.67508848    1.79931432   -0.11331935       8
Co     0.05297768   -1.71434034    1.66589781       9
Ni     0.05038258    1.82650230    1.66086413      10
Co    -1.66526376    0.09922033   -1.73301578      11
Cr     1.70727365    0.05033460    1.69136153      12
Co     1.76859955    0.09760800   -1.86055037      13
Ni     0.04694500   -1.68212312   -1.80394408      14
Cr     0.12606896    1.75613470   -1.81013815      15
Ni     1.79232398   -1.66803655   -0.07907070      16
Co     1.71660952    1.79139249   -0.13461974      17
Cr    -1.56724211   -0.03538558    1.56918423      18
