          18
Lattice="  24.8920   0.0000   0.0000   0.0000  24.8920   0.0000   0.0000   0.0000  24.8920 " ConfE="      -5924.1449" DelE="          0.0000"
Ni     3.46075745   -0.02547942    0.06027801       1
Ni    -0.05732513    0.02066652    3.62615385       2
Ni    -0.04626445    3.57145852    0.02311049       3
Co    -0.06048216    0.02523818   -3.44849267       4
Cr    -0.06611999   -3.55510429    0.01182189       5
Cr    -3.68690259   -0.00607895    0.00646587       6
Ni     1.73665432   -1.76836533    0.05183378       7
Co    -0.03888673   -1.69184094   -1.65700088       8
Ni     1.72123496   -0.01307276    1.86685159       9
Co     1.62075081    1.69364513    0.05438774      10
Ni    -0.04850009   -1.76926076    1.82619137      11
Co    -0.05690696    1.75501009   -1.71787784      12
Cr    -1.81007017   -1.73697912    0.00407243      13
Co    -1.87028695    0.03668531   -1.65682503      14
Cr    -1.79230409    0.01645010    1.80062243      15
Cr    -1.80237802    1.79435285   -0.01480182      16
Cr    -0.05351885    1.80117309    1.80154251      17
Cr     0.00000000    0.00000000    0.00000000      18
          18
Lattice="  24.8920   0.0000   0.0000   0.0000  24.8920   0.0000   0.0000   0.0000  24.8920 " ConfE="      -5923.6153" DelE="          0.5296"
Ni     3.41260213   -0.02169784    0.06617748       1
Ni    -0.04786508    0.01916598    3.64370910       2
Ni    -0.07359476    3.60477347    0.03753720       3
Co    -0.04798873    0.03118643   -3.44907639       4
Cr    -0.11606616   -3.63127437    0.05654169       5
Cr    -3.66093463   -0.01685810   -0.01845550       6
Ni     1.70942955   -1.83963447    0.08716673       7
Co    -0.07013396   -1.80466291   -1.68611308       8
Ni     1.65891407    0.00481056    1.79272839       9
Co     1.65766499    1.85382539    0.12006937      10
Ni    -0.05315247   -1.75894484    1.81110758      11
Co    -0.12500033    1.91108729   -1.77113283      12
Cr    -1.66149266   -1.53815137   -0.01831579      13
Co    -1.77607557    0.04425944   -1.68939161      14
Cr    -1.75359246    0.01840971    1.81899365      15
Cr    -1.68936220    1.61619382   -0.00852438      16
Cr    -0.04239572    1.76126375    1.76070958      17
Cr     0.89374977    0.09518804   -0.97189185      18
          18
Lattice="  24.8920   0.0000   0.0000   0.0000  24.8920   0.0000   0.0000   0.0000  24.8920 " ConfE="      -5924.3602" DelE="         -0.2153"
Ni     3.47583777   -0.01175948    0.06952411       1
Ni    -0.05368166    0.02228115    3.64539069       2
Ni    -0.05640881    3.58116687    0.03137538       3
Co    -0.07778614    0.00656070   -3.50340811       4
Cr    -0.08274441   -3.57454081    0.01990893       5
Cr    -3.69398517   -0.01264802   -0.00101714       6
Ni     1.70153531   -1.74619470    0.06006954       7
Co    -0.06448938   -1.68899856   -1.63560862       8
Ni     1.68467585   -0.00078517    1.83317116       9
Co     1.58831342    1.68255536    0.06725402      10
Ni    -0.06145445   -1.74851307    1.80354513      11
Co    -0.08068795    1.75654036   -1.69783874      12
Cr    -1.77887601   -1.62652296   -0.00215834      13
Co    -1.81281225    0.04180977   -1.64579975      14
Cr    -1.73903849    0.03396493    1.78142716      15
Cr    -1.76361879    1.69826424   -0.01009558      16
Cr    -0.04544914    1.78986239    1.78458262      17
Cr     1.61347280    0.02970780   -1.74055554      18
