          18
Lattice="  24.8920   0.0000   0.0000   0.0000  24.8920   0.0000   0.0000   0.0000  24.8920 " ConfE="      -5949.1455" DelE="          0.0000"
Co    -0.01570949    0.02362495    3.51267282       1
Ni     3.51352758   -0.03183258   -0.00287274       2
Cr    -0.08734351   -0.00715645   -3.55537988       3
Co    -3.59132492    0.03527771   -0.01192949       4
Cr    -0.05340669   -3.57229436    0.02055335       5
Co     0.00574567    3.53866882   -0.04402384       6
Co    -0.05576333   -1.79032772    1.72262251       7
Ni     0.00227804    1.74087584    1.73592568       8
Ni     1.74225875   -1.74885416    0.01705538       9
Co     1.77304988    1.74887939    0.00887590      10
Ni    -1.82017973    0.01534886    1.75583614      11
Cr     1.74552300    0.04581761   -1.84911023      12
Co    -1.80678660   -0.02287620   -1.78202030      13
Cr    -1.80530842   -1.80834134    0.03067159      14
Cr    -1.74442226    1.83540512   -0.06205222      15
Cr    -0.02294571   -1.75162530   -1.75568422      16
Co    -0.00957561    1.74148407   -1.81569959      17
Ni     0.00000000    0.00000000    0.00000000      18
          18
Lattice="  24.8920   0.0000   0.0000   0.0000  24.8920   0.0000   0.0000   0.0000  24.8920 " ConfE="      -5948.3881" DelE="          0.7574"
Co     0.01088911    0.03280447    3.46928401       1
Ni     3.46042333   -0.02261505    0.00657598       2
Cr    -0.07316964   -0.01276210   -3.55635686       3
Co    -3.59337567    0.04349933    0.00523392       4
Cr    -0.05954900   -3.65126687    0.00479191       5
Co    -0.01970800    3.61063970   -0.05716008       6
Co    -0.09825353   -1.92958668    1.73720071       7
Ni    -0.06286286    1.92485842    1.74803000       8
Ni     1.80257371   -1.93776569   -0.02627153       9
Co     1.78682544    1.94834021   -0.08899416      10
Ni    -1.69681689    0.02600087    1.68006735      11
Cr     1.68343291    0.03490061   -1.74714555      12
Co    -1.74892958   -0.01999915   -1.71117663      13
Cr    -1.74923901   -1.78677507    0.04696141      14
Cr    -1.69831269    1.81239921   -0.07430155      15
Cr    -0.01119666   -1.67145277   -1.63116394      16
Co    -0.00858501    1.71105750   -1.75690544      17
Ni     0.90481057    0.00800130    0.85033523      18
          18
Lattice="  24.8920   0.0000   0.0000   0.0000  24.8920   0.0000   0.0000   0.0000  24.8920 " ConfE="      -5949.1827" DelE="         -0.0372"
Co    -0.05800773    0.01583801    3.54923821       1
Ni     3.55278449   -0.03033638   -0.02947328       2
Cr    -0.08860149   -0.00654871   -3.58110197       3
Co    -3.61348852    0.03746057   -0.00956549       4
Cr    -0.05543684   -3.60698814    0.00251413       5
Co     0.00355646    3.56675032   -0.04534928       6
Co    -0.07061708   -1.77443006    1.68850586       7
Ni    -0.02612745    1.73454379    1.69225666       8
Ni     1.70485517   -1.73466477   -0.03123628       9
Co     1.73962230    1.74663729   -0.04035699      10
Ni    -1.77873396    0.01595575    1.71314373      11
Cr     1.70003921    0.07627792   -1.78999550      12
Co    -1.77324990   -0.01696701   -1.73004148      13
Cr    -1.76774180   -1.77574617    0.02973079      14
Cr    -1.72767559    1.80301645   -0.07190783      15
Cr    -0.04632924   -1.65563943   -1.69548882      16
Co    -0.01950666    1.69715636   -1.76933026      17
Ni     1.74289711    0.00132302    1.72770959      18
