          18
Lattice="  24.8920   0.0000   0.0000   0.0000  24.8920   0.0000   0.0000   0.0000  24.8920 " ConfE="      -5945.6116" DelE="          0.0000"
Ni     0.03092827    3.48856436   -0.01258536       1
Cr    -3.42898735   -0.00206258   -0.06577128       2
Ni     0.05013488   -3.62049689   -0.01816139       3
Co     3.58382389   -0.01761073    0.01673302       4
Ni     0.05093150   -0.04413212    3.53819969       5
Cr     0.01715996    0.02520811   -3.55116221       6
Ni     0.02001904    1.75561926    1.74788181       7
Ni     0.03943771    1.73651513   -1.76899948       8
Cr    -1.69417185   -0.00533053    1.72477620       9
Co    -1.77289126    0.04905370   -1.69644309      10
Cr     1.86337615    1.71509915   -0.00729261      11
Ni    -1.70158028   -1.84549823   -0.01101426      12
Ni     1.78833139   -1.80895331   -0.00880753      13
Co     1.83668432   -0.02387813    1.76422903      14
Cr     1.83432307   -0.00277224   -1.75547107      15
Cr     0.05614608   -1.75696140    1.77104874      16
Cr     0.02062257   -1.73681373   -1.79703993      17
Co     0.00000000    0.00000000    0.00000000      18
          18
Lattice="  24.8920   0.0000   0.0000   0.0000  24.8920   0.0000   0.0000   0.0000  24.8920 " ConfE="      -5944.2681" DelE="          1.3435"
Ni     0.01220689    3.49782370   -0.01198660       1
Cr    -3.45460337   -0.01829813   -0.05991461       2
Ni     0.03356094   -3.64277293   -0.02731827       3
Co     3.51843390   -0.01563922    0.04287867       4
Ni     0.10636187   -0.03717824    3.51896868       5
Cr     0.05187551    0.00778186   -3.65850182       6
Ni     0.02033605    1.90191274    1.89549638       7
Ni     0.06699384    1.74309519   -1.85870217       8
Cr    -1.64526677   -0.06168463    1.88747676       9
Co    -1.69202910   -0.08401199   -1.91697314      10
Cr     1.79564348    1.82962083   -0.05416750      11
Ni    -1.66930635   -1.76720508    0.00183469      12
Ni     1.80904328   -1.92365251   -0.06967082      13
Co     1.14027368    0.01086004    1.06598771      14
Cr     1.73933833    0.00171505   -1.67949572      15
Cr     0.03378405   -1.81976290    1.75782195      16
Cr     0.02054481   -1.66522151   -1.71939015      17
Co    -1.14868788    1.00742626    0.04904594      18
          18
Lattice="  24.8920   0.0000   0.0000   0.0000  24.8920   0.0000   0.0000   0.0000  24.8920 " ConfE="      -5945.4013" DelE="          0.2103"
Ni     0.06032459    3.49816201   -0.00795285       1
Cr    -3.44055802   -0.02669001   -0.06022514       2
Ni     0.05487813   -3.61096924   -0.00666990       3
Co     3.51555905    0.01176130    0.08138146       4
Ni     0.07521481   -0.04558110    3.51345822       5
Cr     0.03639239    0.01154305   -3.58290081       6
Ni     0.09166966    1.72532716    1.76452953       7
Ni     0.06068185    1.73070423   -1.78628129       8
Cr    -1.71904385   -0.01186669    1.75809315       9
Co    -1.70075260   -0.03622123   -1.77073955      10
Cr     1.84872561    1.67543962    0.00897665      11
Ni    -1.69240646   -1.82619094    0.00292552      12
Ni     1.78771287   -1.79162452    0.02349459      13
Co     0.07005031   -0.03556160    0.02163470      14
Cr     1.84931154   -0.01482290   -1.79590391      15
Cr     0.08776796   -1.74404492    1.79559839      16
Cr     0.04004665   -1.76431283   -1.79906854      17
Co    -1.73816616    1.69920031   -0.00642230      18
