          18
Lattice="  24.8920   0.0000   0.0000   0.0000  24.8920   0.0000   0.0000   0.0000  24.8920 " ConfE="      -5938.6063" DelE="          0.0000"
Co     0.01429469   -0.05945691    3.42195600       1
Co     0.00337411    3.61547285   -0.03162765       2
Co    -0.00321677   -3.57690552   -0.05562604       3
Cr     0.05138534    0.02908339   -3.57754971       4
Cr     3.56409052    0.03084197   -0.02388495       5
Cr    -3.56216432    0.06824403   -0.08027443       6
Cr     1.78432219   -0.04163336    1.68745672       7
Cr    -1.80752428    0.00174932    1.69308659       8
Ni     0.00096350    1.81046020   -1.84490937       9
Cr     1.54930530    1.84719907    0.16442915      10
Cr    -1.54184409    1.84788494    0.16429116      11
Ni     1.77188353    0.04262274   -1.76316218      12
Cr    -0.05455849   -1.85108941    1.68771442      13
Co     0.00317010   -1.75927509   -1.80054932      14
Co     1.78925422   -1.80845621   -0.04993321      15
Co    -1.80461316   -1.75593974   -0.06960241      16
Cr    -1.72675391    0.02103661   -1.79255443      17
Co     0.00000000    0.00000000    0.00000000      18
          18
Lattice="  24.8920   0.0000   0.0000   0.0000  24.8920   0.0000   0.0000   0.0000  24.8920 " ConfE="      -5938.0280" DelE="          0.5782"
Co    -0.02132589   -0.07855382    3.33280601       1
Co     0.02447141    3.61285649   -0.02209496       2
Co     0.00521647   -3.59739030   -0.05463227       3
Cr     0.05425400    0.03453999   -3.55530586       4
Cr     3.62407667    0.00874739   -0.05084648       5
Cr    -3.66583547    0.02052084   -0.17653240       6
Cr     1.92681810   -0.09150877    1.70483941       7
Cr    -2.03394876   -0.01595487    1.61963295       8
Ni     0.03356427    1.82124456   -1.78036824       9
Cr     1.82009843    1.85366051    0.07382397      10
Cr    -1.79535047    1.93428094    0.02324477      11
Ni     1.75972774    0.03023843   -1.73279685      12
Cr    -0.06714607   -1.83285506    1.63821967      13
Co     0.00565773   -1.73125160   -1.74209847      14
Co     1.78581620   -1.78756679   -0.03008701      15
Co    -1.80962015   -1.77869251   -0.05026335      16
Cr    -1.58306096    0.02887470   -1.54771935      17
Co    -0.03660733    0.61134082    0.71856629      18
          18
Lattice="  24.8920   0.0000   0.0000   0.0000  24.8920   0.0000   0.0000   0.0000  24.8920 " ConfE="      -5938.4888" DelE="          0.1175"
Co     0.01090064   -0.02761353    3.47817804       1
Co     0.01268160    3.63192260   -0.06091816       2
Co    -0.00456831   -3.58470217   -0.05076990       3
Cr     0.04937827    0.02724831   -3.60776124       4
Cr     3.57443490    0.00911274    0.00307328       5
Cr    -3.60323611    0.06123813   -0.10018370       6
Cr     1.63448083   -0.00776453    1.58193974       7
Cr    -1.68398777    0.04471539    1.55543547       8
Ni     0.02035334    1.80619499   -1.83145970       9
Cr     1.73493915    1.79878414   -0.03211625      10
Cr    -1.71586269    1.84402333   -0.06250423      11
Ni     1.74306929    0.01272908   -1.76117291      12
Cr    -0.04968126   -1.76936651    1.66997071      13
Co     0.00191953   -1.73794703   -1.78205419      14
Co     1.76158727   -1.77727125   -0.04070062      15
Co    -1.76998114   -1.72492622   -0.06668232      16
Cr    -1.62248172   -0.00316991   -1.67868054      17
Co     0.02023356    1.79477747    1.68838904      18
