          18
Lattice="  24.8920   0.0000   0.0000   0.0000  24.8920   0.0000   0.0000   0.0000  24.8920 " ConfE="      -5943.2593" DelE="          0.0000"
Ni     0.02475109    3.47204606   -0.01341091       1
Co     3.56812400   -0.02434769    0.03911247       2
Co    -0.03167980   -3.60703240   -0.02246247       3
Co    -3.61325839   -0.03792212   -0.00082831       4
Co    -0.04006504   -0.04032254    3.58530050       5
Ni    -0.03447434   -0.04640094   -3.52428797       6
Ni    -0.02271675    1.72438154    1.77744891       7
Co     0.01282422    1.77668977   -1.78395537       8
Ni     1.73502454   -0.03167077    1.78753729       9
Ni     1.75233297   -0.02243670   -1.72535611      10
Ni    -1.81850107    1.72690479   -0.00429422      11
Ni     1.72263762   -1.82387989    0.00643827      12
Cr    -1.81017091   -1.82881514    0.04687835      13
Co    -1.83640712   -0.05444440    1.76563697      14
Ni    -1.79201253   -0.04599670   -1.76271304      15
Cr    -0.08243809   -1.79542075    1.76712904      16
Co    -0.07552564   -1.86093674   -1.75176510      17
Ni     0.00000000    0.00000000    0.00000000      18
          18
Lattice="  24.8920   0.0000   0.0000   0.0000  24.8920   0.0000   0.0000   0.0000  24.8920 " ConfE="      -5942.5493" DelE="          0.7100"
Ni     0.02304839    3.44064536   -0.00505794       1
Co     3.54404299   -0.02298828    0.03026669       2
Co    -0.02003213   -3.60505815   -0.02129707       3
Co    -3.61168397   -0.02236029    0.00386235       4
Co    -0.05208898   -0.05048799    3.64877477       5
Ni    -0.05663877   -0.04985242   -3.58998091       6
Ni    -0.08188896    1.74262923    1.92829731       7
Co    -0.06285418    1.80755625   -1.92865565       8
Ni     1.74656275   -0.08273492    1.94107624       9
Ni     1.75289624   -0.11686079   -1.89459400      10
Ni    -1.73172575    1.68682131    0.00557234      11
Ni     1.65981912   -1.71115603    0.01883045      12
Cr    -1.76436154   -1.78019573    0.03669844      13
Co    -1.76997124   -0.07751329    1.73343174      14
Ni    -1.74915777   -0.03677422   -1.74677543      15
Cr    -0.10924827   -1.72600698    1.72811450      16
Co    -0.08235522   -1.83455286   -1.74350586      17
Ni     1.00156811    1.00914278    0.00487604      18
          18
Lattice="  24.8920   0.0000   0.0000   0.0000  24.8920   0.0000   0.0000   0.0000  24.8920 " ConfE="      -5943.2474" DelE="          0.0119"
Ni    -0.02455925    3.51840456   -0.01654187       1
Co     3.57682156   -0.03264049    0.02664338       2
Co    -0.03198935   -3.62411709   -0.02108266       3
Co    -3.62848307   -0.03626629    0.00522610       4
Co    -0.04308197   -0.04144878    3.60872125       5
Ni    -0.04684288   -0.05133245   -3.54832767       6
Ni    -0.04511032    1.69818513    1.75885601       7
Co    -0.03240070    1.75354084   -1.79192696       8
Ni     1.69758771   -0.03634048    1.77462648       9
Ni     1.69729629   -0.05047520   -1.73158421      10
Ni    -1.77968222    1.69545928   -0.00707623      11
Ni     1.66917387   -1.77166035    0.01720040      12
Cr    -1.78659444   -1.80723390    0.04633720      13
Co    -1.78860016   -0.09036452    1.72575423      14
Ni    -1.76664442   -0.05534405   -1.73680094      15
Cr    -0.11238931   -1.76157474    1.73546110      16
Co    -0.09514715   -1.84816527   -1.72847088      17
Ni     1.72555001    1.75668802   -0.04052646      18
