          18
Lattice="  24.8920   0.0000   0.0000   0.0000  24.8920   0.0000   0.0000   0.0000  24.8920 " ConfE="      -5938.2557" DelE="          0.0000"
Co     0.04119667   -3.51763512    0.00960402       1
Ni     3.49953447    0.04652362    0.00338123       2
Co    -0.07039889    3.64381484   -0.02005548       3
Cr    -3.62539757    0.04813087   -0.02389828       4
Co    -0.04037200    0.07395591   -3.54990441       5
Cr    -0.02286019    0.04714646    3.53912360       6
Co    -0.03395013   -1.75814758   -1.79185609       7
Ni    -0.01011124   -1.74012618    1.74873369       8
Co     1.72564373    0.06362776   -1.76473790       9
Ni     1.74076062    0.05126441    1.73217205      10
Ni    -1.82823411   -1.76682295   -0.00163328      11
Cr     1.70027293    1.88257937   -0.00702189      12
Co    -1.84012141    1.83744813    0.01659383      13
Ni    -1.82192614    0.02562060   -1.75882043      14
Cr    -1.85072670    0.02280124    1.73605999      15
Cr    -0.08905991    1.82582479   -1.75055011      16
Cr    -0.05877243    1.83680468    1.74441708      17
Ni     0.00000000    0.00000000    0.00000000      18
          18
Lattice="  24.8920   0.0000   0.0000   0.0000  24.8920   0.0000   0.0000   0.0000  24.8920 " ConfE="      -5937.0707" DelE="          1.1850"
Co     0.07481437   -3.48438588   -0.01038674       1
Ni     3.44357956   -0.03040147    0.01442224       2
Co    -0.05362558    3.63864741   -0.02085920       3
Cr    -3.62427415    0.01908991   -0.00132813       4
Co    -0.06150839    0.07888533   -3.60132568       5
Cr    -0.03638012    0.07087160    3.61974086       6
Co    -0.07623298   -1.79867492   -1.93920892       7
Ni    -0.05736195   -1.75676241    1.91334223       8
Co     1.77689903    0.09582838   -1.95949165       9
Ni     1.77097278    0.08140083    1.92586215      10
Ni    -1.72611851   -1.73542687    0.00317104      11
Cr     1.70162984    1.75343453    0.02819794      12
Co    -1.82013128    1.78668173    0.02617758      13
Ni    -1.81235622   -0.00255306   -1.75069684      14
Cr    -1.78767077    0.01868910    1.71471556      15
Cr    -0.05148431    1.64716614   -1.55070652      16
Cr    -0.05022011    1.76608452    1.68091569      17
Ni     0.90247317   -0.84796796   -0.01653064      18
          18
Lattice="  24.8920   0.0000   0.0000   0.0000  24.8920   0.0000   0.0000   0.0000  24.8920 " ConfE="      -5937.8859" DelE="          0.3698"
Co     0.03992165   -3.51292185   -0.01349446       1
Ni     3.47415379   -0.01289272    0.00860141       2
Co    -0.06464138    3.63825678   -0.01704896       3
Cr    -3.61596982    0.03972127   -0.02193301       4
Co    -0.03252924    0.06894044   -3.55125067       5
Cr    -0.03189033    0.05521676    3.56030010       6
Co    -0.01422217   -1.76742582   -1.80079023       7
Ni    -0.02358391   -1.74788833    1.78987682       8
Co     1.73561814    0.04384296   -1.77643326       9
Ni     1.74361266    0.04429678    1.77544516      10
Ni    -1.81280410   -1.77571695    0.00228851      11
Cr     1.71011102    1.86102939    0.00235676      12
Co    -1.83284487    1.82692863    0.02103773      13
Ni    -1.80536374    0.01432523   -1.75143159      14
Cr    -1.84327167    0.01459860    1.74170550      15
Cr    -0.07514601    1.80815824   -1.72772006      16
Cr    -0.05132175    1.82759711    1.74294920      17
Ni     0.01620585   -0.02359100    0.01586769      18
