          18
Lattice="  24.8920   0.0000   0.0000   0.0000  24.8920   0.0000   0.0000   0.0000  24.8920 " ConfE="      -5949.6909" DelE="          0.0000"
Ni     0.03233150    3.48345011   -0.00346097       1
Ni     0.02713698   -3.62483649   -0.00598181       2
Co    -0.00696633   -0.01955916    3.53621038       3
Cr     3.53469744   -0.00393384    0.00437971       4
Co    -3.53192007   -0.02922948    0.01484135       5
Cr     0.04732728   -0.04145142   -3.56663786       6
Ni     1.77893104    1.73740488    0.01372226       7
Cr    -1.69739559    1.67526839    0.01204582       8
Co     1.73522201    0.01886044    1.79047787       9
Cr    -1.69093249   -0.03300294    1.74438051      10
Ni     1.78278635   -1.79191747   -0.00488275      11
Ni     0.02610932   -1.81879256   -1.77068294      12
Cr     0.02353515    1.72137673   -1.81493232      13
Cr     1.80354254   -0.01648932   -1.82452905      14
Co    -1.78323131   -0.04581309   -1.78689428      15
Cr    -1.75072604   -1.81246771    0.03684975      16
Co    -0.00385181   -1.81798728    1.76303352      17
Co     0.00000000    0.00000000    0.00000000      18
          18
Lattice="  24.8920   0.0000   0.0000   0.0000  24.8920   0.0000   0.0000   0.0000  24.8920 " ConfE="      -5948.6655" DelE="          1.0254"
Ni     0.02815463    3.40947436   -0.01783807       1
Ni     0.03069586   -3.52259423   -0.08072186       2
Co    -0.02108534   -0.02860005    3.46562474       3
Cr     3.66398666   -0.01328872    0.00294119       4
Co    -3.62495150   -0.03419218    0.00411404       5
Cr     0.03357460   -0.07211350   -3.55648022       6
Ni     1.88545936    1.70485036   -0.02904257       7
Cr    -1.88221702    1.70114737   -0.10343492       8
Co     1.88629528   -0.04974260    1.77914587       9
Cr    -1.96650024   -0.14429836    1.79139459      10
Ni     1.88432137   -1.77019759    0.00448776      11
Ni    -0.00264697   -1.10940186   -1.27130178      12
Cr     0.02911919    1.59338335   -1.72193309      13
Cr     1.98557632    0.01959307   -1.84992671      14
Co    -2.00520843    0.03124626   -1.82896625      15
Cr    -1.85512853   -1.80028055   -0.00866644      16
Co    -0.02161673   -1.74828958    1.67450077      17
Co    -0.11958014    0.74609483    0.88365085      18
          18
Lattice="  24.8920   0.0000   0.0000   0.0000  24.8920   0.0000   0.0000   0.0000  24.8920 " ConfE="      -5949.0951" DelE="          0.5958"
Ni     0.03770226    3.49932632   -0.05468907       1
Ni     0.02382743   -3.51705119   -0.10225406       2
Co     0.00336900   -0.04551027    3.54811504       3
Cr     3.61627168   -0.00017137    0.01379881       4
Co    -3.60466037   -0.02458139    0.00960884       5
Cr     0.04279481   -0.08461922   -3.55038021       6
Ni     1.80391794    1.68824735   -0.03533987       7
Cr    -1.69675103    1.62226319   -0.05793519       8
Co     1.77069230   -0.04396915    1.73840926       9
Cr    -1.66726389   -0.11056262    1.62259692      10
Ni     1.90273161   -1.79903702   -0.01679242      11
Ni    -0.00322068   -1.01996887   -1.17447265      12
Cr     0.04445187    1.63397677   -1.76874032      13
Cr     1.99633769    0.00211839   -1.87492922      14
Co    -2.00375876    0.05193047   -1.83009740      15
Cr    -1.89321392   -1.84105254   -0.05532784      16
Co    -0.01303505   -1.74522114    1.66503547      17
Co    -0.00027579    1.65932464    1.66928176      18
