          18
Lattice="  24.8920   0.0000   0.0000   0.0000  24.8920   0.0000   0.0000   0.0000  24.8920 " ConfE="      -5940.7629" DelE="          0.0000"
Ni    -0.05281141    3.45117372    0.04930817       1
Ni     3.48847772   -0.03533336    0.04553342       2
Ni    -0.07794030   -3.60219125    0.04634643       3
Co     0.02245986   -0.00476547   -3.44975170       4
Co    -3.64548879   -0.04618384    0.01773248       5
Co    -0.05085806   -0.04817235    3.60437740       6
Ni    -1.81293608   -0.02704942   -1.72983624       7
Co    -1.82180892    1.70014058    0.04374560       8
Cr     1.64686507    1.72118965    0.00918391       9
Ni    -0.04355171   -1.81007823    1.80078461      10
Ni    -0.05777645   -1.85033993   -1.71765774      11
Cr     1.70532043   -0.02056333   -1.75242118      12
Co    -0.04806128    1.69022643    1.85724506      13
Co    -1.81637547   -0.08295231    1.77654416      14
Cr    -1.88529795   -1.70903969    0.08581948      15
Cr     1.73360316   -0.05876593    1.85810307      16
Cr     1.76319047   -1.81574162    0.06881652      17
Co     0.00000000    0.00000000    0.00000000      18
          18
Lattice="  24.8920   0.0000   0.0000   0.0000  24.8920   0.0000   0.0000   0.0000  24.8920 " ConfE="      -5940.0405" DelE="          0.7224"
Ni    -0.03923885    3.43219623    0.04900916       1
Ni     3.52395973   -0.06050700    0.05262050       2
Ni    -0.07762525   -3.61772577    0.04733876       3
Co     0.00068242   -0.01187369   -3.42504540       4
Co    -3.70175876   -0.05499785    0.02175130       5
Co    -0.05245448   -0.04081023    3.59728731       6
Ni    -1.89310581   -0.05016316   -1.71793300       7
Co    -1.92603726    1.71255949    0.06068565       8
Cr     1.90231060    1.79052588    0.15654181       9
Ni    -0.04790849   -1.78075657    1.76594508      10
Ni    -0.07122919   -1.80871589   -1.68419829      11
Cr     1.84951035   -0.19310601   -1.82720259      12
Co    -0.02675249    1.61992798    1.73900124      13
Co    -1.80311020   -0.08132884    1.72557097      14
Cr    -1.86360121   -1.68093214    0.07646087      15
Cr     1.68007610   -0.03436695    1.79750886      16
Cr     1.72244489   -1.76058283    0.07386766      17
Co     0.15046587    1.02317677   -0.97945678      18
          18
Lattice="  24.8920   0.0000   0.0000   0.0000  24.8920   0.0000   0.0000   0.0000  24.8920 " ConfE="      -5940.5660" DelE="          0.1969"
Ni    -0.05053928    3.49393724    0.07145824       1
Ni     3.52186552   -0.03312539    0.05738938       2
Ni    -0.06586458   -3.61293189    0.04855421       3
Co     0.00191079   -0.05839954   -3.50483526       4
Co    -3.66659259   -0.04892777    0.01523943       5
Co    -0.05225321   -0.04738752    3.61558281       6
Ni    -1.82260279   -0.05659022   -1.71015794       7
Co    -1.80771885    1.67686039    0.05391154       8
Cr     1.62878474    1.64837350    0.08745466       9
Ni    -0.03928288   -1.78524125    1.78126338      10
Ni    -0.05753717   -1.80661263   -1.68150272      11
Cr     1.71387770   -0.04368499   -1.72802332      12
Co    -0.03556577    1.64452161    1.79703674      13
Co    -1.79936144   -0.09482863    1.74144972      14
Cr    -1.86476046   -1.70361551    0.09743315      15
Cr     1.71232845   -0.05310326    1.84557185      16
Cr     1.72142859   -1.72896233    0.07335567      17
Co    -0.02009515    1.66839920   -1.68592703      18
