          18
Lattice="  24.8920   0.0000   0.0000   0.0000  24.8920   0.0000   0.0000   0.0000  24.8920 " ConfE="      -5937.1204" DelE="          0.0000"
Co    -3.42607468    0.00514625    0.04460877       1
Cr     0.06833003    3.60535774    0.06649821       2
Ni     3.60964080    0.02966709    0.04342363       3
Ni     0.09214719   -3.55323955    0.10974428       4
Cr     0.05480888    0.01446766   -3.37822782       5
Cr     0.05847348    0.00747333    3.64955820       6
Cr    -1.73240791    0.04005576   -1.63076245       7
Co    -1.64360850    0.02727154    1.75839468       8
Ni     0.02064332    1.82086907   -1.64262018       9
Ni     0.02865175    1.78895348    1.79111536      10
Co    -1.71408079   -1.81950499    0.08522312      11
Co     1.84057758    1.84453580    0.06554377      12
Ni     1.83817406   -1.75151271    0.06837663      13
Co     0.03967929   -1.75145844   -1.68342098      14
Ni     0.08220074   -1.75505788    1.86753623      15
Co     1.81721239    0.01691449   -1.71282623      16
Ni     1.81080131    0.01604984    1.81905606      17
Cr     0.00000000    0.00000000    0.00000000      18
          18
Lattice="  24.8920   0.0000   0.0000   0.0000  24.8920   0.0000   0.0000   0.0000  24.8920 " ConfE="      -5936.3803" DelE="          0.7401"
Co    -3.40476674   -0.00372792    0.04951288       1
Cr     0.09744003    3.51860843    0.06605358       2
Ni     3.60593866    0.04328409    0.03993391       3
Ni     0.07806657   -3.53637683    0.10308262       4
Cr     0.09528490    0.01877905   -3.54229917       5
Cr     0.09426198   -0.00310022    3.74371588       6
Cr    -1.71210768   -0.00178672   -1.83874799       7
Co    -1.69350539   -0.02031138    1.94271384       8
Ni     0.09973062    1.83122321   -1.81483897       9
Ni     0.06759144    1.78680129    1.94032737      10
Co    -1.69547727   -1.74049380    0.08973041      11
Co     1.74713859    1.80745280    0.05690865      12
Ni     1.78471095   -1.68960917    0.06238048      13
Co    -0.00612298   -1.60962332   -1.64777531      14
Ni     0.06285342   -1.70915998    1.86262219      15
Co     1.80079864    0.02170470   -1.74043036      16
Ni     1.77383559    0.02910268    1.81479573      17
Cr    -0.76181794    0.70301019    0.05841772      18
          18
Lattice="  24.8920   0.0000   0.0000   0.0000  24.8920   0.0000   0.0000   0.0000  24.8920 " ConfE="      -5937.1877" DelE="         -0.0673"
Co    -3.50251314   -0.00597557    0.06171693       1
Cr     0.15476569    3.61958992    0.07636255       2
Ni     3.61955028    0.03291957    0.04292863       3
Ni     0.08440479   -3.54765013    0.11065066       4
Cr     0.07117997    0.01596036   -3.45352931       5
Cr     0.06983911    0.00150650    3.67143717       6
Cr    -1.61242257   -0.01416756   -1.60527664       7
Co    -1.64288501    0.03869047    1.77046837       8
Ni     0.07828606    1.77856543   -1.65199660       9
Ni     0.06919269    1.77305948    1.82202561      10
Co    -1.68719266   -1.72167855    0.07641073      11
Co     1.82966199    1.85258895    0.07271439      12
Ni     1.81733270   -1.73024577    0.06752107      13
Co     0.03896054   -1.69752861   -1.67355299      14
Ni     0.08133101   -1.73776743    1.86871714      15
Co     1.81444165    0.00449354   -1.72043509      16
Ni     1.79833366    0.00988543    1.80861868      17
Cr    -1.68507073    1.77274008    0.09281220      18
