          18
Lattice="  24.8920   0.0000   0.0000   0.0000  24.8920   0.0000   0.0000   0.0000  24.8920 " ConfE="      -5940.7791" DelE="          0.0000"
Ni    -0.01881277    0.04903411   -3.43819831       1
Co     3.42413589    0.00917719    0.01409336       2
Co    -0.11592803    0.00962494    3.57678109       3
Ni    -3.62652800    0.01238104    0.03865598       4
Co    -0.04883616    3.61889312    0.00169686       5
Co    -0.08450245   -3.51418975    0.04109879       6
Cr    -0.00939665    1.76929599   -1.69695250       7
Ni    -0.05318004   -1.72581541   -1.73472725       8
Co     1.67978090    1.78835006   -0.02705618       9
Co     1.69443883   -1.73316464   -0.00873766      10
Co    -1.87225166    0.02144950   -1.72301285      11
Cr     1.69277833   -0.00081705    1.81610478      12
Cr    -1.82888418   -0.02111798    1.78085287      13
Ni    -1.84691332    1.78948207    0.03645213      14
Cr    -1.86417961   -1.80865283    0.01972138      15
Ni    -0.07936704    1.79222986    1.79388501      16
Co    -0.07260746   -1.75105625    1.80477553      17
Cr     0.00000000    0.00000000    0.00000000      18
          18
Lattice="  24.8920   0.0000   0.0000   0.0000  24.8920   0.0000   0.0000   0.0000  24.8920 " ConfE="      -5940.3320" DelE="          0.4471"
Ni    -0.02332048    0.05161885   -3.40797964       1
Co     3.34594076    0.01483621    0.01119679       2
Co    -0.12389096    0.00829582    3.57338545       3
Ni    -3.59699845    0.01415973    0.02817464       4
Co    -0.05617389    3.70557557    0.00344853       5
Co    -0.08325091   -3.60037532    0.04714020       6
Cr    -0.08319221    1.95602928   -1.74909545       7
Ni    -0.12156093   -1.89214776   -1.77765846       8
Co     1.69718487    1.95259717    0.01011073       9
Co     1.69597012   -1.88393244   -0.00110987      10
Co    -1.78305957    0.02447345   -1.68011094      11
Cr     1.58463883   -0.00382067    1.73239045      12
Cr    -1.57669022   -0.04176104    1.56702338      13
Ni    -1.80726895    1.81234774    0.01295121      14
Cr    -1.77427285   -1.77369423   -0.02363846      15
Ni    -0.05968395    1.82200576    1.75283593      16
Co    -0.04168048   -1.76888948    1.76385401      17
Cr     0.76937431    0.01462023   -0.84640434      18
          18
Lattice="  24.8920   0.0000   0.0000   0.0000  24.8920   0.0000   0.0000   0.0000  24.8920 " ConfE="      -5941.0602" DelE="         -0.2811"
Ni    -0.06262477    0.03979115   -3.47553934       1
Co     3.48772638    0.02837274    0.04421888       2
Co    -0.12992266    0.00640583    3.59539113       3
Ni    -3.62339963    0.01526003    0.03741438       4
Co    -0.05714395    3.65873389    0.00248747       5
Co    -0.08519155   -3.55832626    0.04755210       6
Cr    -0.05948139    1.77572198   -1.67785705       7
Ni    -0.09034154   -1.71700754   -1.67318604       8
Co     1.65779624    1.83015640    0.00860397       9
Co     1.68207742   -1.74951513    0.02700853      10
Co    -1.81746320    0.03451920   -1.68390341      11
Cr     1.55744926   -0.01846073    1.66065681      12
Cr    -1.65806613   -0.05923729    1.63021061      13
Ni    -1.83326634    1.79607040    0.03549310      14
Cr    -1.86907551   -1.81308497    0.00524173      15
Ni    -0.09422042    1.80046511    1.77214254      16
Co    -0.07334175   -1.75170620    1.78120873      17
Cr     1.63325097    0.03663156   -1.56908439      18
