          18
Lattice="  24.8920   0.0000   0.0000   0.0000  24.8920   0.0000   0.0000   0.0000  24.8920 " ConfE="      -5949.8318" DelE="          0.0000"
Co    -3.52418879    0.10305160   -0.00008948       1
Co    -0.14547591    3.51364735    0.00926551       2
Cr     3.57481620   -0.01643224    0.08742510       3
Co     0.00168948   -3.48206619    0.02184056       4
Ni     0.00099366    0.02353346   -3.56444849       5
Ni     0.00110037    0.04061084    3.57451420       6
Ni    -1.79201665    0.03655196   -1.74337575       7
Ni    -1.76748563    0.06372132    1.77533392       8
Ni    -0.02420610    1.75117825   -1.72261356       9
Ni    -0.05793901    1.79641829    1.78087026      10
Ni    -1.79294172   -1.73232508    0.01782302      11
Ni     1.76890582    1.77639321    0.02271844      12
Co     1.82247480   -1.74176235   -0.01099782      13
Co    -0.00010393   -1.74313647   -1.74108907      14
Ni     0.00871516   -1.72364860    1.80518597      15
Cr     1.74522919   -0.10506541   -1.71267781      16
Ni     1.76609997    0.02055117    1.80070133      17
Cr     0.00000000    0.00000000    0.00000000      18
          18
Lattice="  24.8920   0.0000   0.0000   0.0000  24.8920   0.0000   0.0000   0.0000  24.8920 " ConfE="      -5948.9826" DelE="          0.8493"
Co    -3.46512239    0.12758163   -0.00698813       1
Co    -0.14058496    3.43511591    0.01219790       2
Cr     3.57204144   -0.01498582    0.09535738       3
Co    -0.01327859   -3.47860021    0.02228918       4
Ni     0.00476090    0.01790101   -3.62084157       5
Ni     0.01410437    0.03272597    3.62157238       6
Ni    -1.81043886    0.01590797   -1.88051714       7
Ni    -1.81625513    0.04771885    1.93087362       8
Ni     0.02588150    1.78016901   -1.86815321       9
Ni    -0.00659210    1.82220590    1.92128118      10
Ni    -1.77414884   -1.65873535    0.01596831      11
Ni     1.71134224    1.74119628    0.00450449      12
Co     1.78446147   -1.69125149   -0.01201506      13
Co    -0.00749802   -1.66740216   -1.70658188      14
Ni    -0.01936803   -1.65439402    1.76501198      15
Cr     1.66437204   -0.11902816   -1.65873212      16
Ni     1.72469663    0.03785436    1.77226419      17
Cr    -0.74626288    0.73659923    0.03946247      18
          18
Lattice="  24.8920   0.0000   0.0000   0.0000  24.8920   0.0000   0.0000   0.0000  24.8920 " ConfE="      -5950.1217" DelE="         -0.2899"
Co    -3.57890676    0.06350754    0.01534140       1
Co    -0.05002051    3.57140722    0.00700130       2
Cr     3.59293322   -0.02635021    0.09845675       3
Co     0.00333364   -3.51200370    0.03188666       4
Ni     0.00042832    0.02335773   -3.58295137       5
Ni     0.01356013    0.03229542    3.59273148       6
Ni    -1.78379600    0.01628247   -1.73818758       7
Ni    -1.76124849    0.04953964    1.78342552       8
Ni    -0.00421286    1.71345322   -1.70192965       9
Ni    -0.02891070    1.78641937    1.78275029      10
Ni    -1.76260104   -1.69577562    0.01641259      11
Ni     1.73980209    1.72110885    0.01952163      12
Co     1.81908430   -1.73317692   -0.01430369      13
Co     0.02305279   -1.71390315   -1.71660434      14
Ni     0.01388374   -1.70818945    1.78267558      15
Cr     1.71187041   -0.14783646   -1.66578889      16
Ni     1.75880399    0.00461040    1.78189278      17
Cr    -1.81750236    1.80742336    0.03514211      18
