          18
Lattice="  24.8920   0.0000   0.0000   0.0000  24.8920   0.0000   0.0000   0.0000  24.8920 " ConfE="      -5946.9941" DelE="          0.0000"
Ni    -0.03603058    3.52758772    0.01299158       1
Ni     3.51656671   -0.03386537   -0.01757802       2
Co    -0.01514191    0.02819989    3.48470350       3
Cr    -3.55726449   -0.03520806   -0.00657859       4
Cr     0.01896911   -0.01955339   -3.57906027       5
Cr    -0.04430348   -3.56025820   -0.02647376       6
Cr    -1.69984245    1.72798975    0.07041693       7
Ni    -0.01371669   -1.80474157   -1.82286758       8
Co    -1.75261632    0.01252046    1.74071290       9
Cr     1.65598638    1.74072657    0.06039754      10
Cr     1.64455343    0.01118680    1.76458988      11
Co    -0.01144609    1.76266637   -1.82741829      12
Cr    -1.76020744   -0.00076682   -1.75521981      13
Co    -1.77909615   -1.77967767   -0.02839294      14
Co    -0.00740544   -1.84119134    1.74669566      15
Cr     1.77287583   -0.02835487   -1.82074602      16
Co     1.74497871   -1.77802786   -0.01429110      17
Co     0.00000000    0.00000000    0.00000000      18
          18
Lattice="  24.8920   0.0000   0.0000   0.0000  24.8920   0.0000   0.0000   0.0000  24.8920 " ConfE="      -5946.2176" DelE="          0.7764"
Ni    -0.03058255    3.51315969    0.01827510       1
Ni     3.56955692   -0.04861986   -0.04059097       2
Co    -0.02382955    0.02979869    3.46410124       3
Cr    -3.63656412   -0.05707344   -0.03065459       4
Cr     0.02630481    0.00623681   -3.58657138       5
Cr    -0.04565797   -3.56497490   -0.00859098       6
Cr    -1.91431188    1.77331213    0.00662189       7
Ni    -0.01526247   -1.77546383   -1.80078878       8
Co    -1.91340048   -0.06749338    1.73874003       9
Cr     1.89501465    1.81808808   -0.03429852      10
Cr     1.78306152   -0.15195110    1.77271463      11
Co    -0.01304360    1.71301187   -1.70562746      12
Cr    -1.68819935    0.01676212   -1.67302023      13
Co    -1.76738107   -1.73984476   -0.03235962      14
Co    -0.01145354   -1.73311279    1.70395402      15
Cr     1.69072453    0.00481830   -1.71957309      16
Co     1.72420634   -1.73216902   -0.02800413      17
Co     0.01395160    1.04849868    1.01002868      18
          18
Lattice="  24.8920   0.0000   0.0000   0.0000  24.8920   0.0000   0.0000   0.0000  24.8920 " ConfE="      -5946.9509" DelE="          0.0432"
Ni    -0.03075547    3.57134673   -0.01578891       1
Ni     3.54040442   -0.04591983   -0.03713209       2
Co    -0.02564137   -0.01175258    3.53870031       3
Cr    -3.57800066   -0.03824429   -0.01268690       4
Cr     0.02340975   -0.03016775   -3.62391325       5
Cr    -0.05510403   -3.58408098   -0.02630020       6
Cr    -1.69971586    1.70238081   -0.01654229       7
Ni    -0.01568433   -1.79478452   -1.82039342       8
Co    -1.75379002   -0.01667511    1.70526519       9
Cr     1.64913411    1.68803495   -0.00384216      10
Cr     1.63419237   -0.07061073    1.71428968      11
Co    -0.01418264    1.73540687   -1.79775742      12
Cr    -1.69621392   -0.01553593   -1.73104704      13
Co    -1.74952393   -1.73898743   -0.04043441      14
Co    -0.00727710   -1.79602149    1.72723717      15
Cr     1.70244713   -0.02659364   -1.77144780      16
Co     1.70241900   -1.73301052   -0.02929381      17
Co    -0.01961156    1.74134517    1.74415651      18
