          18
Lattice="  24.8920   0.0000   0.0000   0.0000  24.8920   0.0000   0.0000   0.0000  24.8920 " ConfE="      -5924.4137" DelE="          0.0000"
Ni     0.00061251   -0.05057842    3.47476281       1
Ni     3.46776897   -0.07272849   -0.01802509       2
Co    -0.05991332   -0.04715905   -3.63632316       3
Cr    -3.60246208   -0.05796710   -0.13266666       4
Cr    -0.03180197   -3.59848721   -0.10995399       5
Ni    -0.02263521    3.52419206   -0.08787604       6
Ni     0.00533733   -1.81401297    1.70503495       7
Cr    -0.01135970    1.71328481    1.71783680       8
Ni     1.76005841   -1.81330203   -0.03923291       9
Cr     1.65040168    1.68574006   -0.02716500      10
Cr    -1.79332696   -0.06361362    1.68304037      11
Ni     1.72332829   -0.03532722   -1.86108405      12
Co    -1.80432920   -0.00898851   -1.78899021      13
Cr    -1.74780973   -1.77341037   -0.12468100      14
Cr    -1.74990952    1.73143899   -0.10794110      15
Co    -0.04129373   -1.80021492   -1.79179903      16
Co    -0.05306673    1.73853004   -1.84831979      17
Co     0.00000000    0.00000000    0.00000000      18
          18
Lattice="  24.8920   0.0000   0.0000   0.0000  24.8920   0.0000   0.0000   0.0000  24.8920 " ConfE="      -5923.7591" DelE="          0.6546"
Ni     0.00576197   -0.06187249    3.47814363       1
Ni     3.43144693   -0.06406639   -0.00925446       2
Co    -0.05538847   -0.04462549   -3.65354089       3
Cr    -3.61487638   -0.08772982   -0.12398681       4
Cr    -0.03889467   -3.66898772   -0.12983588       5
Ni    -0.05641083    3.54499595   -0.11715917       6
Ni    -0.01940662   -1.98372592    1.76223192       7
Cr    -0.08145020    1.94518572    1.81285931       8
Ni     1.75181607   -1.88389874   -0.05473883       9
Cr     1.63975679    1.80400266   -0.13851635      10
Cr    -1.71093487   -0.09401071    1.70794877      11
Ni     1.67436274   -0.02673877   -1.79725047      12
Co    -1.77244445   -0.02629267   -1.80730208      13
Cr    -1.60459823   -1.62613913   -0.12598746      14
Cr    -1.56752510    1.50722737   -0.08792641      15
Co    -0.02759324   -1.79516832   -1.77390944      16
Co    -0.05455623    1.74212852   -1.85348554      17
Co     0.81804204    0.08036358    0.99280540      18
          18
Lattice="  24.8920   0.0000   0.0000   0.0000  24.8920   0.0000   0.0000   0.0000  24.8920 " ConfE="      -5924.2739" DelE="          0.1398"
Ni    -0.02859439   -0.05461825    3.52609981       1
Ni     3.50775306   -0.06221237   -0.05214558       2
Co    -0.05911628   -0.04530068   -3.65605294       3
Cr    -3.65124772   -0.07816718   -0.13453719       4
Cr    -0.04530550   -3.62091208   -0.11359485       5
Ni    -0.03737614    3.52854296   -0.09098820       6
Ni    -0.02418531   -1.80918102    1.67755159       7
Cr    -0.02082084    1.69941537    1.69063528       8
Ni     1.73677908   -1.80807348   -0.06537993       9
Cr     1.60496030    1.66268328   -0.06260419      10
Cr    -1.73135084   -0.05819358    1.67919408      11
Ni     1.69809457   -0.03224807   -1.82533860      12
Co    -1.78475982   -0.02208941   -1.80100244      13
Cr    -1.68818969   -1.64404028   -0.14924750      14
Cr    -1.66827666    1.58375567   -0.13730804      15
Co    -0.04738464   -1.78752502   -1.77349769      16
Co    -0.04538508    1.71718350   -1.82154916      17
Co     1.67394832   -0.01096637    1.67685329      18
