          18
Lattice="  24.8920   0.0000   0.0000   0.0000  24.8920   0.0000   0.0000   0.0000  24.8920 " ConfE="      -5948.3310" DelE="          0.0000"
Co    -3.42013674    0.01973721   -0.15841938       1
Ni     0.09328797    0.02664852   -3.67359883       2
Co     0.04277976   -0.01076395    3.34719357       3
Co     0.14418551    3.57957291   -0.06509375       4
Co     0.09458378   -3.54980049   -0.11622068       5
Cr     3.68785529   -0.00852122   -0.12706139       6
Ni    -1.69633706    1.78612488   -0.11484847       7
Ni    -1.68630105    0.04244919   -1.92827589       8
Ni     0.07546016    1.79691091   -1.86517206       9
Co     0.08116241    1.70628003    1.62497099      10
Co    -1.64364308   -1.73090050   -0.09815055      11
Ni     1.82397817   -0.00563796   -1.85778286      12
Co     0.08316944   -1.76483100    1.63078183      13
Ni     1.87249274   -1.75488010   -0.13137394      14
Cr    -0.02453397   -1.79567960   -1.83207122      15
Cr     1.85955221   -0.00884780    1.62741223      16
Co     1.86145319    1.75463356   -0.08887287      17
Cr     0.00000000    0.00000000    0.00000000      18
          18
Lattice="  24.8920   0.0000   0.0000   0.0000  24.8920   0.0000   0.0000   0.0000  24.8920 " ConfE="      -5947.9211" DelE="          0.4099"
Co    -3.35486923    0.02752409   -0.14051562       1
Ni     0.09610894    0.03245803   -3.69299299       2
Co     0.05350083   -0.02328390    3.29434564       3
Co     0.16216286    3.64630244   -0.07785742       4
Co     0.09227592   -3.60819417   -0.12319895       5
Cr     3.65727200   -0.00979422   -0.12323689       6
Ni    -1.68572417    1.88184908   -0.14333896       7
Ni    -1.62543606    0.04406808   -1.87116443       8
Ni     0.08039237    1.81133623   -1.86392074       9
Co     0.10182458    1.86332830    1.67173349      10
Co    -1.66352890   -1.84020807   -0.12069716      11
Ni     1.79514504   -0.01067172   -1.84971389      12
Co     0.12723698   -1.91398099    1.66441328      13
Ni     1.80609852   -1.73028997   -0.11760063      14
Cr    -0.02729461   -1.78829594   -1.81692164      15
Cr     1.81883533    0.00292364    1.60413350      16
Co     1.78163544    1.68855113   -0.05375351      17
Cr    -0.56632822   -0.02218237    0.62729372      18
          18
Lattice="  24.8920   0.0000   0.0000   0.0000  24.8920   0.0000   0.0000   0.0000  24.8920 " ConfE="      -5948.5717" DelE="         -0.2407"
Co    -3.44184723    0.01566250   -0.17169690       1
Ni     0.09779473    0.02634455   -3.69549748       2
Co     0.08670880    0.01259960    3.43206683       3
Co     0.15511743    3.61596199   -0.07441314       4
Co     0.09411698   -3.57428634   -0.11800838       5
Cr     3.67108607   -0.01013929   -0.13604723       6
Ni    -1.66023339    1.78627889   -0.14591403       7
Ni    -1.62502419    0.02886579   -1.87539421       8
Ni     0.08994237    1.80822802   -1.88205182       9
Co     0.10823475    1.70007566    1.60218663      10
Co    -1.62246964   -1.74002699   -0.11291790      11
Ni     1.80425047   -0.01020943   -1.85630216      12
Co     0.10469213   -1.72946531    1.59788911      13
Ni     1.84395644   -1.73155102   -0.14899827      14
Cr    -0.02780482   -1.81900697   -1.86441306      15
Cr     1.76513922    0.02723345    1.57696819      16
Co     1.85080281    1.73519252   -0.09108937      17
Cr    -1.57821886    0.05800968    1.59677428      18
