          18
Lattice="  24.8920   0.0000   0.0000   0.0000  24.8920   0.0000   0.0000   0.0000  24.8920 " ConfE="      -5938.1212" DelE="          0.0000"
Co    -0.04957568    3.46399641    0.00441369       1
Cr     3.36349782   -0.03157685    0.01708365       2
Ni    -0.12349596   -3.59719769    0.05082138       3
Ni    -3.66580107   -0.02667282    0.06302039       4
Ni    -0.12673569   -0.03103608   -3.53516131       5
Co    -0.12965824   -0.03096007    3.59994753       6
Co    -0.04859645    1.72095298   -1.74589818       7
Co    -0.04983184    1.74848959    1.77929760       8
Cr     1.60739509   -0.03443150   -1.71186454       9
Cr     1.60129380   -0.00189189    1.78047612      10
Ni    -1.90774737    1.72453139    0.02108395      11
Co     1.65574097   -1.83129596    0.03488801      12
Cr    -1.85084369   -1.76581647    0.01728527      13
Co    -1.86574098   -0.06616078   -1.71920521      14
Cr    -1.73101299    0.00960076    1.75326913      15
Co    -0.14712008   -1.83608299   -1.74262296      16
Ni    -0.10190888   -1.83077081    1.81734188      17
Co     0.00000000    0.00000000    0.00000000      18
          18
Lattice="  24.8920   0.0000   0.0000   0.0000  24.8920   0.0000   0.0000   0.0000  24.8920 " ConfE="      -5937.6205" DelE="          0.5007"
Co    -0.02148327    3.39879500    0.01301217       1
Cr     3.32924535   -0.02425379    0.01994213       2
Ni    -0.10975790   -3.59868683    0.04797043       3
Ni    -3.66581476   -0.01955926    0.06008666       4
Ni    -0.14863824   -0.03532525   -3.58015672       5
Co    -0.13835687   -0.04720056    3.65341901       6
Co    -0.10730689    1.76123759   -1.87782018       7
Co    -0.14287824    1.78973307    1.93025430       8
Cr     1.61183684   -0.07978287   -1.86687616       9
Cr     1.60037932   -0.03748289    1.96393097      10
Ni    -1.86842919    1.71274845    0.00368945      11
Co     1.62168536   -1.72016080    0.04082251      12
Cr    -1.78404081   -1.71647740   -0.03961936      13
Co    -1.85169895   -0.06033483   -1.72411425      14
Cr    -1.56343382   -0.03136188    1.60527757      15
Co    -0.13396946   -1.79285442   -1.71931326      16
Ni    -0.07144613   -1.85080853    1.82814461      17
Co     0.79161424    0.77522341    0.04688727      18
          18
Lattice="  24.8920   0.0000   0.0000   0.0000  24.8920   0.0000   0.0000   0.0000  24.8920 " ConfE="      -5938.1123" DelE="          0.0088"
Co    -0.09991958    3.50090600   -0.00231589       1
Cr     3.44374771   -0.05555080    0.01990432       2
Ni    -0.12478939   -3.61138472    0.04958260       3
Ni    -3.68574838   -0.02393752    0.06405051       4
Ni    -0.13117716   -0.03684579   -3.54158701       5
Co    -0.14185752   -0.03582749    3.61297338       6
Co    -0.08644871    1.67254540   -1.72472746       7
Co    -0.11115378    1.71334552    1.78547605       8
Cr     1.56754472   -0.06526942   -1.66727761       9
Cr     1.56715131   -0.02068361    1.75719328      10
Ni    -1.89478662    1.70717877    0.02103833      11
Co     1.61918957   -1.74924977    0.03098795      12
Cr    -1.83546683   -1.74882678   -0.01801295      13
Co    -1.85514918   -0.08171728   -1.68666604      14
Cr    -1.67978304   -0.02312265    1.67751656      15
Co    -0.15058142   -1.80940346   -1.71180991      16
Ni    -0.10823126   -1.82655675    1.79720029      17
Co     1.63647744    1.66163810    0.03825445      18
