          23
Lattice="  24.8920   0.0000   0.0000   0.0000  24.8920   0.0000   0.0000   0.0000  24.8920 " ConfE="      -5936.5780" DelE="          0.0000"
Ni    -0.02327874   -2.66588381    2.58136056       1
Co     0.01565539    2.57384656   -2.59485816       2
Ni    -1.77747628   -2.66048359    0.85769500       3
Ni    -1.81082841   -0.92421590    2.59820860       4
Ni     1.76260596   -0.91111064    2.59309749       5
Co     1.73975041   -2.66621858    0.80672355       6
Ni    -1.77100110    0.86368261   -2.66085002       7
Co    -1.75451348    2.60723529   -0.90930832       8
Ni     1.80036206    0.83278862   -2.66539842       9
Cr     1.69377522    2.53738921   -0.86757400      10
Co    -3.66264868   -0.89183324    0.85150298      11
Ni     3.58180253   -0.90723439    0.86557281      12
Ni     3.60388537    0.86895336   -0.92444385      13
Ni    -3.61335491    0.89218285   -0.92087591      14
Co    -0.01696581   -2.67094345   -0.90711859      15
Co    -0.01035445    0.85623991    2.55733358      16
Cr    -0.10190415    2.57140234    0.76736513      17
Ni    -0.00834585   -0.85276057   -2.59834505      18
Ni     0.00000000    0.00000000    0.00000000      19
Co    -1.94554830   -0.95910943   -0.97677244      20
Co    -1.96163196    0.94479121    0.89565469      21
Co     1.94860687    0.97324817    0.89371003      22
Cr     1.87486691   -0.96098392   -0.94931982      23
          23
Lattice="  24.8920   0.0000   0.0000   0.0000  24.8920   0.0000   0.0000   0.0000  24.8920 " ConfE="      -5936.5190" DelE="          0.0591"
Ni    -0.02130530   -2.68904933    2.59893645       1
Co     0.01449716    2.59316307   -2.61567921       2
Ni    -1.76637593   -2.66646346    0.85568085       3
Ni    -1.78928633   -0.92172891    2.58567245       4
Ni     1.73939397   -0.90596315    2.57934774       5
Co     1.73284393   -2.68249205    0.81036674       6
Ni    -1.74576830    0.85860842   -2.64307481       7
Co    -1.73985358    2.60509400   -0.91380047       8
Ni     1.77575315    0.83502604   -2.64786961       9
Cr     1.68617774    2.54034490   -0.86733149      10
Co    -3.64300050   -0.88936588    0.84767075      11
Ni     3.55464718   -0.90105512    0.86059921      12
Ni     3.60055875    0.87292855   -0.92746162      13
Ni    -3.60777434    0.89452992   -0.92123410      14
Co    -0.01379016   -2.69079018   -0.91724867      15
Co    -0.00838458    0.87744185    2.59808622      16
Cr    -0.11268773    2.55375420    0.76360361      17
Ni    -0.00869019   -0.87402993   -2.62951126      18
Ni    -0.02230233   -0.24970872    0.28542508      19
Co    -1.91819691   -0.95118130   -0.98244574      20
Co    -1.94217674    0.96462933    0.88152020      21
Co     1.91057776    0.98244761    0.86274327      22
Cr     1.83886164   -0.94483614   -0.95779118      23
          23
Lattice="  24.8920   0.0000   0.0000   0.0000  24.8920   0.0000   0.0000   0.0000  24.8920 " ConfE="      -5936.9553" DelE="         -0.3773"
Ni    -0.02467961   -2.70112255    2.62581997       1
Co     0.01079476    2.61062346   -2.63415662       2
Ni    -1.77998473   -2.69080041    0.87053131       3
Ni    -1.80461888   -0.93049555    2.62986094       4
Ni     1.74657048   -0.91087867    2.61651946       5
Co     1.74556634   -2.71234660    0.83020518       6
Ni    -1.74546403    0.86886924   -2.66634871       7
Co    -1.73955209    2.61906306   -0.93117110       8
Ni     1.75763904    0.84122973   -2.65872486       9
Cr     1.69523256    2.57146046   -0.86955954      10
Co    -3.59879556   -0.88405640    0.84873265      11
Ni     3.50894822   -0.88829905    0.86109840      12
Ni     3.55219968    0.85880210   -0.91580302      13
Ni    -3.56112194    0.88472831   -0.90427416      14
Co    -0.01289357   -2.73482578   -0.94435992      15
Co    -0.00451980    0.89266563    2.64795671      16
Cr    -0.14275784    2.60865773    0.77576977      17
Ni    -0.01435038   -0.87202493   -2.65557004      18
Ni    -0.04551645   -0.86598311    0.80059646      19
Co    -1.79456803   -0.91285804   -0.94483287      20
Co    -1.78167785    0.92348322    0.84798245      21
Co     1.71278690    0.92544911    0.79175832      22
Cr     1.70077849   -0.92270360   -0.92261156      23
