          18
Lattice="  24.8920   0.0000   0.0000   0.0000  24.8920   0.0000   0.0000   0.0000  24.8920 " ConfE="      -5940.8389" DelE="          0.0000"
Ni    -0.00403428    0.04632678   -3.62852849       1
Co    -0.01449364   -3.48828483   -0.09182556       2
Cr     0.01234809   -0.05158780    3.42961487       3
Co    -0.00831137    3.55898931   -0.03817117       4
Co    -3.57088298    0.02035593   -0.05404430       5
Cr     3.53163408    0.03555854   -0.02266100       6
Ni     1.76239872    0.04156777   -1.84687396       7
Ni     0.01644066    1.83978456    1.73009788       8
Co    -1.72850429   -1.71854973   -0.07133336       9
Co     1.74952078   -1.75437107   -0.04576615      10
Cr     1.73364306   -0.07923290    1.70760922      11
Co    -1.73333063   -0.00269591    1.70146342      12
Cr     0.01519397   -1.72950140   -1.87136870      13
Co    -0.03510669    1.77662300   -1.79353303      14
Cr    -1.75860197    0.10679831   -1.81708656      15
Cr    -1.75208461    1.80036638   -0.06752856      16
Co     1.75570203    1.81194745   -0.04306153      17
Cr     0.00000000    0.00000000    0.00000000      18
          18
Lattice="  24.8920   0.0000   0.0000   0.0000  24.8920   0.0000   0.0000   0.0000  24.8920 " ConfE="      -5940.3909" DelE="          0.4480"
Ni    -0.01550160    0.04024159   -3.65506369       1
Co    -0.02671889   -3.40633973   -0.11467248       2
Cr     0.01432582   -0.05054319    3.44498484       3
Co    -0.00127776    3.55639141   -0.01738731       4
Co    -3.62790546    0.02190016   -0.06393894       5
Cr     3.58236571    0.03673831   -0.04192786       6
Ni     1.72339534    0.00883499   -1.80750831       7
Ni     0.01073922    1.76492251    1.72282647       8
Co    -1.88923462   -1.74649369   -0.11544643       9
Co     1.87127696   -1.79115253   -0.09704376      10
Cr     1.86154593   -0.05356400    1.75970058      11
Co    -1.87332025    0.02666764    1.72492171      12
Cr     0.00390000   -1.71938970   -1.88050991      13
Co    -0.05460831    1.71708084   -1.73828243      14
Cr    -1.69849915    0.09177534   -1.74592336      15
Cr    -1.71439899    1.73315823   -0.05509004      16
Co     1.72714878    1.71779231   -0.01358682      17
Cr    -0.01258037   -0.62601479    0.55195448      18
          18
Lattice="  24.8920   0.0000   0.0000   0.0000  24.8920   0.0000   0.0000   0.0000  24.8920 " ConfE="      -5940.7601" DelE="          0.0788"
Ni    -0.00169195    0.04305865   -3.62583150       1
Co    -0.03323378   -3.55852795   -0.10097726       2
Cr     0.03392654    0.00139963    3.49107694       3
Co    -0.00489032    3.59745573   -0.03318995       4
Co    -3.60241609    0.02814221   -0.06201076       5
Cr     3.56046453    0.04768838   -0.03334422       6
Ni     1.74001223    0.05265239   -1.81642595       7
Ni     0.01092877    1.81247644    1.69543244       8
Co    -1.72313472   -1.68186786   -0.10523627       9
Co     1.74025089   -1.72726033   -0.07722073      10
Cr     1.73586568    0.05364155    1.62072609      11
Co    -1.73822422    0.05370796    1.65408786      12
Cr     0.00163845   -1.69599838   -1.77516518      13
Co    -0.04969569    1.76453496   -1.75613735      14
Cr    -1.68593827    0.13652165   -1.75507745      15
Cr    -1.71870935    1.78716712   -0.07839664      16
Co     1.75707067    1.82284836   -0.04416283      17
Cr    -0.01191040   -1.68107619    1.60096395      18
