          19
Lattice="  24.8920   0.0000   0.0000   0.0000  24.8920   0.0000   0.0000   0.0000  24.8920 " ConfE="      -5926.0906" DelE="          0.0000"
Cr     1.57640683   -3.21102478    1.70094994       1
Ni     0.00220156    0.07234988   -3.58694101       2
Co     0.04372421    0.05181558    3.50616609       3
Co    -0.03183470   -3.45850198   -0.03473955       4
Co     3.59324602    0.02575310   -0.00086177       5
Co    -3.53087657    0.05410562   -0.05863520       6
Co     0.02756803    3.66116751   -0.04446556       7
Ni     1.77459138    1.82069695   -0.00453732       8
Ni    -1.73569842    1.85034980   -0.02378731       9
Cr    -1.73830961   -1.64306834    0.00632334      10
Cr     1.72917325   -0.03817455    1.73195384      11
Co    -1.72918645    0.06096927    1.72331746      12
Ni     0.02221343    1.86625312    1.75657413      13
Co     1.74232947   -1.69203946   -0.04108386      14
Cr    -0.03862311   -1.66521348   -1.81212701      15
Co     1.82545698    0.04449100   -1.78771504      16
Co    -1.77156328    0.03480482   -1.80569886      17
Co     0.03401277    1.82292213   -1.82015618      18
Co     0.00000000    0.00000000    0.00000000      19
          19
Lattice="  24.8920   0.0000   0.0000   0.0000  24.8920   0.0000   0.0000   0.0000  24.8920 " ConfE="      -5925.6429" DelE="          0.4476"
Cr     1.57636106   -3.16536272    1.68060461       1
Ni     0.00060092    0.07450431   -3.60435168       2
Co     0.03885666    0.03347279    3.45319326       3
Co    -0.03268040   -3.36902114   -0.02513031       4
Co     3.64896260    0.04340771   -0.01104329       5
Co    -3.57010711    0.06170534   -0.06452243       6
Co     0.03021061    3.65692639   -0.04136147       7
Ni     1.76756012    1.78610268   -0.00108307       8
Ni    -1.72557415    1.82593015   -0.01620977       9
Cr    -1.89019476   -1.65233146   -0.03304672      10
Cr     1.87227950   -0.00389168    1.75239200      11
Co    -1.86613953    0.13021109    1.77267332      12
Ni     0.02591906    1.82126047    1.73010124      13
Co     1.93883883   -1.74489722   -0.11646715      14
Cr    -0.02953123   -1.61648057   -1.77697245      15
Co     1.80073181    0.03681574   -1.76155176      16
Co    -1.71698137    0.01830978   -1.74784056      17
Co     0.03896512    1.79963194   -1.80130397      18
Co     0.01840628   -0.63847003    0.62057596      19
          19
Lattice="  24.8920   0.0000   0.0000   0.0000  24.8920   0.0000   0.0000   0.0000  24.8920 " ConfE="      -5926.2194" DelE="         -0.1288"
Cr     1.71650120   -3.32264009    1.68754032       1
Ni     0.00016447    0.07779813   -3.60586870       2
Co     0.02823260    0.07037423    3.55850964       3
Co    -0.02984289   -3.49098151   -0.04181572       4
Co     3.62042878    0.03485970   -0.01361835       5
Co    -3.55650405    0.06180293   -0.06912808       6
Co     0.03202788    3.66574421   -0.04535735       7
Ni     1.75308214    1.78639299   -0.01077017       8
Ni    -1.70895406    1.82741468   -0.02908450       9
Cr    -1.74586451   -1.60351061   -0.02569238      10
Cr     1.79136193    0.00954569    1.72015783      11
Co    -1.75127314    0.08871273    1.70582858      12
Ni     0.03079712    1.80678666    1.73263386      13
Co     1.72222589   -1.64497082   -0.04511014      14
Cr    -0.02109048   -1.60759395   -1.73983013      15
Co     1.80217924    0.04990913   -1.77662310      16
Co    -1.71753217    0.02608763   -1.76138345      17
Co     0.04020885    1.83053002   -1.83230937      18
Co    -0.01741672   -1.62901791    1.69431556      19
