          18
Lattice="  24.8920   0.0000   0.0000   0.0000  24.8920   0.0000   0.0000   0.0000  24.8920 " ConfE="      -5950.0638" DelE="          0.0000"
Cr     0.05137038    0.04375742   -3.53552950       1
Ni     0.00395336   -3.49299472    0.01638732       2
Ni     0.03039182    0.01822122    3.58425187       3
Co     0.03372315    3.60806475    0.06366362       4
Cr    -3.49112508   -0.00954496    0.02504673       5
Ni     3.54757358    0.02456432   -0.00923623       6
Co    -1.72144487    0.02079428   -1.77575691       7
Cr     1.74496833    0.01435585   -1.76062091       8
Co    -1.77909032   -1.72013027    0.00349306       9
Ni     1.75091166   -1.72071112   -0.01214838      10
Ni     0.04450013    1.83971838   -1.73384990      11
Cr    -0.04007278   -1.78560084    1.80987592      12
Cr     0.01170604    1.85623299    1.79496496      13
Ni    -1.74944218    1.80758960    0.04033972      14
Co     1.80167932    1.81966151    0.04137080      15
Co    -1.75234862    0.03881764    1.83130956      16
Ni     1.76016755    0.01257275    1.80642335      17
Ni     0.00000000    0.00000000    0.00000000      18
          18
Lattice="  24.8920   0.0000   0.0000   0.0000  24.8920   0.0000   0.0000   0.0000  24.8920 " ConfE="      -5949.3292" DelE="          0.7346"
Cr     0.04217286    0.05012424   -3.55166249       1
Ni     0.01242762   -3.44217846    0.00228328       2
Ni     0.03598063    0.00752360    3.60001097       3
Co     0.03632493    3.59931740    0.05733079       4
Cr    -3.60299637    0.02051042    0.05971025       5
Ni     3.62011982    0.03131074    0.03748940       6
Co    -1.95512300    0.12781006   -1.79922065       7
Cr     1.97089501    0.12390422   -1.71535463       8
Co    -1.88384662   -1.71429248    0.02882108       9
Ni     1.87512806   -1.73277006    0.05558612      10
Ni     0.04807507    1.72307444   -1.68524631      11
Cr    -0.05405436   -1.66861971    1.69113434      12
Cr     0.00521129    1.77922526    1.76127967      13
Ni    -1.73581250    1.76586993    0.04057294      14
Co     1.78951125    1.78509045    0.06192768      15
Co    -1.70681367    0.01674548    1.78258126      16
Ni     1.75924843    0.01309484    1.79085221      17
Ni     0.02927352   -0.93832042   -1.15798401      18
          18
Lattice="  24.8920   0.0000   0.0000   0.0000  24.8920   0.0000   0.0000   0.0000  24.8920 " ConfE="      -5949.8312" DelE="          0.2326"
Cr     0.04859282    0.06430098   -3.59985302       1
Ni     0.00539466   -3.52732411    0.03569480       2
Ni     0.02610720    0.01152525    3.61376744       3
Co     0.02863572    3.62242486    0.06071666       4
Cr    -3.53940458    0.01118998    0.04705972       5
Ni     3.56585899    0.03031796    0.00961707       6
Co    -1.74605521    0.05431098   -1.75335225       7
Cr     1.77727746    0.08153498   -1.71607988       8
Co    -1.73499246   -1.67001123    0.04753414       9
Ni     1.74337948   -1.68258679    0.02299381      10
Ni     0.04068364    1.78848313   -1.70936471      11
Cr    -0.07065416   -1.72278021    1.74479310      12
Cr    -0.00203864    1.82396283    1.79073169      13
Ni    -1.71919149    1.77934441    0.04614181      14
Co     1.76838826    1.80077872    0.06205694      15
Co    -1.70972155    0.03742046    1.81168031      16
Ni     1.72198244    0.02223827    1.79287392      17
Ni     0.02355200   -1.67446830   -1.71947985      18
