          18
Lattice="  24.8920   0.0000   0.0000   0.0000  24.8920   0.0000   0.0000   0.0000  24.8920 " ConfE="      -5926.0906" DelE="          0.0000"
Ni     0.00551947   -0.00983904    3.44820300       1
Ni    -3.57386266   -0.04435290   -0.06564201       2
Ni     0.00261119    3.49341814   -0.03011064       3
Ni    -0.03161276   -0.05639391   -3.61586738       4
Co     3.48063908   -0.04897112   -0.04740719       5
Cr    -0.04797447   -3.58735972   -0.01926114       6
Co     0.00921370   -1.77884315    1.72532402       7
Co     1.70647491   -1.81543364   -0.04106289       8
Ni    -1.82162255   -1.80148737   -0.05670560       9
Co     0.00912316    1.70403761    1.71699412      10
Co     1.73830961    1.64306834   -0.00632334      11
Cr    -0.05418939   -1.78968293   -1.78878768      12
Cr    -1.78240199   -0.03955767    1.72394208      13
Cr     1.69968650   -0.02214514   -1.81845035      14
Co    -1.76774163   -0.03379778   -1.81864018      15
Co    -1.79256696    1.69717396   -0.06495854      16
Co    -0.03325367    1.67787316   -1.81202219      17
Cr     0.00000000    0.00000000    0.00000000      18
          18
Lattice="  24.8920   0.0000   0.0000   0.0000  24.8920   0.0000   0.0000   0.0000  24.8920 " ConfE="      -5925.5240" DelE="          0.5666"
Ni     0.01062136   -0.01079466    3.38191587       1
Ni    -3.58389262   -0.04845650   -0.06977004       2
Ni    -0.00284466    3.53351723   -0.02623578       3
Ni    -0.03267992   -0.05143727   -3.63343869       4
Co     3.41109318   -0.02630259   -0.07063385       5
Cr    -0.08013363   -3.65129563   -0.06650872       6
Co    -0.02661642   -1.88772472    1.72464719       7
Co     1.71313040   -1.93181204   -0.09025049       8
Ni    -1.79502197   -1.78967232   -0.04549850       9
Co    -0.00415173    1.84527461    1.77586610      10
Co     1.77905180    1.82985173   -0.07029950      11
Cr    -0.04306993   -1.70843333   -1.71645128      12
Cr    -1.74183622   -0.01969417    1.66708975      13
Cr     1.65065056   -0.00840494   -1.79983204      14
Co    -1.71570789   -0.03961885   -1.77531236      15
Co    -1.69738342    1.61590283    0.00628085      16
Co     0.00275071    1.63032713   -1.75207032      17
Cr     0.72638115    0.01944448    0.68525088      18
          18
Lattice="  24.8920   0.0000   0.0000   0.0000  24.8920   0.0000   0.0000   0.0000  24.8920 " ConfE="      -5926.0047" DelE="          0.0858"
Ni    -0.02594380   -0.00818145    3.49884746       1
Ni    -3.57112389   -0.04922595   -0.06359336       2
Ni    -0.00804167    3.53566905   -0.03771989       3
Ni    -0.02987373   -0.05987820   -3.61886475       4
Co     3.52617798   -0.05603484   -0.07269523       5
Cr    -0.05646625   -3.61986678   -0.02889328       6
Co    -0.02229524   -1.78054112    1.70484173       7
Co     1.67820511   -1.82697652   -0.07067571       8
Ni    -1.78701955   -1.78301333   -0.06738808       9
Co    -0.03893593    1.71458302    1.69006612      10
Co     1.71673724    1.69441268   -0.06752885      11
Cr    -0.04940344   -1.77955329   -1.78686503      12
Cr    -1.66555588   -0.01355514    1.64269297      13
Cr     1.59384647   -0.00395390   -1.68572483      14
Co    -1.74221868   -0.03756531   -1.80139494      15
Co    -1.79925185    1.69064197   -0.08988203      16
Co    -0.04114286    1.65355897   -1.79783292      17
Cr     1.60471229    0.02910128    1.55614375      18
