          18
Lattice="  24.8920   0.0000   0.0000   0.0000  24.8920   0.0000   0.0000   0.0000  24.8920 " ConfE="      -5940.1344" DelE="          0.0000"
Ni     0.04667949   -3.46923534    0.02276262       1
Ni    -0.02564482    3.58639855   -0.00290546       2
Co     3.53366645   -0.08391965   -0.01892403       3
Co    -3.54161148    0.06384537    0.01019052       4
Cr     0.03050980    0.09052077    3.57540478       5
Cr    -0.01058140    0.00505807   -3.59761742       6
Ni     1.77295665    0.00318349   -1.76359783       7
Ni     1.79460632    0.00588329    1.72988322       8
Cr     0.07104226   -1.71358901    1.75274902       9
Co     0.03010351   -1.75630590   -1.76356411      10
Ni    -1.76706112    0.03550001    1.80715787      11
Ni    -0.00975220    1.80288947   -1.78014949      12
Ni     1.79911562    1.81977017   -0.01036066      13
Cr    -1.83024374   -1.70745591   -0.01161552      14
Co    -1.78241413    0.03845401   -1.78481215      15
Cr    -1.82287244    1.80383310    0.01054914      16
Co     0.00081449    1.80491892    1.76435250      17
Cr     0.00000000    0.00000000    0.00000000      18
          18
Lattice="  24.8920   0.0000   0.0000   0.0000  24.8920   0.0000   0.0000   0.0000  24.8920 " ConfE="      -5939.3816" DelE="          0.7527"
Ni     0.03816253   -3.39638288    0.01813897       1
Ni    -0.02180022    3.56570609   -0.01705794       2
Co     3.46507676   -0.09108761   -0.01219831       3
Co    -3.56172425    0.06012264    0.00463327       4
Cr     0.00980670    0.13775035    3.66617112       5
Cr    -0.02616395    0.02770124   -3.68334317       6
Ni     1.81442640    0.05180500   -1.92278352       7
Ni     1.81965231    0.07628921    1.89041677       8
Cr     0.11479831   -1.74256431    1.91168906       9
Co     0.00097928   -1.76133987   -1.92411408      10
Ni    -1.70428459   -0.01560553    1.78597830      11
Ni     0.01735416    1.73451868   -1.75968060      12
Ni     1.78428281    1.75209872   -0.01426118      13
Cr    -1.80496415   -1.63152390   -0.04089985      14
Co    -1.72976863    0.01058014   -1.75698178      15
Cr    -1.72958088    1.65267424    0.00367019      16
Co     0.00598953    1.74287039    1.72996686      17
Cr     0.72037122   -0.70447704   -0.03744212      18
          18
Lattice="  24.8920   0.0000   0.0000   0.0000  24.8920   0.0000   0.0000   0.0000  24.8920 " ConfE="      -5940.0601" DelE="          0.0743"
Ni     0.01744707   -3.51350449    0.02556831       1
Ni    -0.02766538    3.59027676   -0.00142245       2
Co     3.58302493   -0.01046615   -0.00674653       3
Co    -3.57895709    0.07238085    0.01206219       4
Cr     0.01661483    0.10702377    3.60013739       5
Cr    -0.00977246    0.00602187   -3.60293283       6
Ni     1.76859350    0.02446059   -1.76695362       7
Ni     1.76727994    0.04591171    1.74855647       8
Cr     0.02338148   -1.68071752    1.73543710       9
Co     0.01151598   -1.73438205   -1.74965663      10
Ni    -1.74979875    0.04243955    1.78283893      11
Ni    -0.01351857    1.77051858   -1.74265522      12
Ni     1.77820554    1.78912190   -0.00509630      13
Cr    -1.75311730   -1.62472015   -0.02095266      14
Co    -1.76341235    0.03767177   -1.74568081      15
Cr    -1.80149400    1.76220059    0.00701083      16
Co    -0.01132092    1.78468767    1.75090026      17
Cr     1.78187000   -1.67551016    0.01530713      18
