          18
Lattice="  24.8920   0.0000   0.0000   0.0000  24.8920   0.0000   0.0000   0.0000  24.8920 " ConfE="      -5935.4507" DelE="          0.0000"
Co    -0.03286528   -3.50490139   -0.03715336       1
Co    -0.01208771    0.05179115    3.49567259       2
Co     0.05065396    3.60159393   -0.04423985       3
Co     0.02356204    0.03617715   -3.59639920       4
Ni     3.56846861    0.03554370   -0.05488625       5
Co    -3.57702158    0.06018135   -0.03458273       6
Co     1.76237131   -1.71636747   -0.06796861       7
Ni    -1.74756893   -1.71747472   -0.00453219       8
Co     1.74670801    0.08402122    1.69530603       9
Co    -1.78395113    0.07318908    1.70324671      10
Co    -0.00713138   -1.72898280   -1.84614597      11
Co     0.00433784    1.84216378    1.73838106      12
Ni    -0.00118355    1.79524248   -1.78936946      13
Cr     1.78251924    0.00411816   -1.79701195      14
Ni    -1.77675148    0.05909954   -1.79881094      15
Cr     1.78792568    1.79564841    0.01068310      16
Cr    -1.73135783    1.80580996    0.05188181      17
Ni     0.00000000    0.00000000    0.00000000      18
          18
Lattice="  24.8920   0.0000   0.0000   0.0000  24.8920   0.0000   0.0000   0.0000  24.8920 " ConfE="      -5934.8630" DelE="          0.5877"
Co    -0.04771312   -3.45141313   -0.02908260       1
Co    -0.00936609    0.02460686    3.48487974       2
Co     0.04787505    3.58849642   -0.03399010       3
Co     0.01883656    0.02086310   -3.61319618       4
Ni     3.61775703    0.05026296   -0.06031981       5
Co    -3.64648711    0.07495479   -0.05564374       6
Co     1.90092157   -1.74406672   -0.11162182       7
Ni    -1.91358238   -1.73306204   -0.08327308       8
Co     1.92839805    0.13464620    1.75858348       9
Co    -1.95154904    0.10585182    1.73320305      10
Co    -0.00333196   -1.67849314   -1.77242923      11
Co    -0.01274571    1.74857714    1.73233355      12
Ni    -0.01874742    1.74475338   -1.77213610      13
Cr     1.75063517   -0.03625314   -1.73497946      14
Ni    -1.79093294    0.05612667   -1.78581439      15
Cr     1.61758377    1.63399037    0.04520022      16
Cr    -1.65795456    1.72055025    0.07826117      17
Ni    -0.00074182   -0.81450008    0.87634497      18
          18
Lattice="  24.8920   0.0000   0.0000   0.0000  24.8920   0.0000   0.0000   0.0000  24.8920 " ConfE="      -5935.4006" DelE="          0.0501"
Co    -0.03010312   -3.53052733   -0.05624881       1
Co    -0.01175468    0.07678126    3.53619532       2
Co     0.04807128    3.63026790   -0.05110229       3
Co     0.01754835    0.03525588   -3.61720834       4
Ni     3.57662772    0.04606027   -0.05633580       5
Co    -3.60207650    0.07191185   -0.04364519       6
Co     1.73109856   -1.65991314   -0.09600958       7
Ni    -1.73943584   -1.68152218   -0.04289412       8
Co     1.71561741    0.10572383    1.64322001       9
Co    -1.76895907    0.09573417    1.65681446      10
Co     0.00177696   -1.69307009   -1.81175432      11
Co    -0.00952502    1.80418050    1.70467850      12
Ni    -0.00752454    1.77138112   -1.77654983      13
Cr     1.74440648   -0.00713946   -1.75922760      14
Ni    -1.75709246    0.06873686   -1.77465950      15
Cr     1.67665961    1.73304328    0.00974131      16
Cr    -1.65471383    1.76994664    0.06094733      17
Ni    -0.00111369   -1.66979024    1.70666403      18
