          18
Lattice="  24.8920   0.0000   0.0000   0.0000  24.8920   0.0000   0.0000   0.0000  24.8920 " ConfE="      -5943.1384" DelE="          0.0000"
Ni    -3.52493615   -0.02073328   -0.00865925       1
Co    -0.01721561   -3.49435535   -0.01184708       2
Cr     3.55458780   -0.00018256   -0.02630086       3
Cr     0.02852313    3.61915263    0.01394155       4
Ni     0.02286909    0.01345926   -3.57242397       5
Ni     0.01763232   -0.00732090    3.53414679       6
Cr    -1.73633423   -0.09263511   -1.70884302       7
Ni    -1.77190705   -0.03264698    1.73212302       8
Cr     0.00674928   -1.78131370   -1.71941343       9
Co     0.02685725   -1.78948506    1.71624622      10
Co    -1.76065642    1.82578086   -0.05225787      11
Co     1.84437282   -1.75925056   -0.00756997      12
Cr     1.79098756    1.79018726   -0.02451282      13
Co     0.01021848    1.80509506   -1.78472209      14
Ni    -0.00020401    1.77694754    1.77522666      15
Co     1.79257454    0.03708053   -1.78725028      16
Cr     1.78152128    0.02164106    1.73742475      17
Ni     0.00000000    0.00000000    0.00000000      18
          18
Lattice="  24.8920   0.0000   0.0000   0.0000  24.8920   0.0000   0.0000   0.0000  24.8920 " ConfE="      -5942.5137" DelE="          0.6247"
Ni    -3.49139079   -0.00998547   -0.00488001       1
Co    -0.01997159   -3.48302581    0.00235124       2
Cr     3.56446240   -0.00862155   -0.03166894       3
Cr     0.03426932    3.64201446    0.02673832       4
Ni     0.03704110    0.03849064   -3.60366839       5
Ni     0.02568094    0.00451447    3.58799102       6
Cr    -1.80924756    0.14105860   -1.88192166       7
Ni    -1.78412951    0.00687149    1.84171947       8
Cr     0.08986058   -1.88294621   -1.96079001       9
Co     0.08921358   -1.82158491    1.88350774      10
Co    -1.71866429    1.78429953   -0.02712239      11
Co     1.78984480   -1.74664194   -0.02234646      12
Cr     1.68938522    1.69925385   -0.05103473      13
Co     0.01810035    1.80723429   -1.77105588      14
Ni     0.00272940    1.76194360    1.78586138      15
Co     1.74614705    0.02780906   -1.76871817      16
Cr     1.66819665   -0.02615511    1.62229422      17
Ni    -0.64644211   -0.76499639   -0.09598912      18
          18
Lattice="  24.8920   0.0000   0.0000   0.0000  24.8920   0.0000   0.0000   0.0000  24.8920 " ConfE="      -5943.1498" DelE="         -0.0114"
Ni    -3.55883395    0.01061346   -0.00747604       1
Co     0.02116566   -3.54555717    0.00249807       2
Cr     3.58559845    0.00368319   -0.02663056       3
Cr     0.03914472    3.65302282    0.02411647       4
Ni     0.03799102    0.02755872   -3.58900526       5
Ni     0.02356417   -0.00026399    3.55101338       6
Cr    -1.64908668    0.04775610   -1.69003895       7
Ni    -1.74934435    0.01359074    1.74767246       8
Cr     0.03680881   -1.72935161   -1.70716734       9
Co     0.06704230   -1.74699515    1.72117099      10
Co    -1.72845238    1.78658384   -0.04596194      11
Co     1.79083388   -1.72368403   -0.01077140      12
Cr     1.76031225    1.75096331   -0.02944003      13
Co     0.03395957    1.79560401   -1.74409601      14
Ni     0.01430600    1.74841850    1.73743959      15
Co     1.76018440    0.04948028   -1.74333532      16
Cr     1.72386095    0.00451315    1.65234681      17
Ni    -1.73424994   -1.73852733    0.01374795      18
