          18
Lattice="  24.8920   0.0000   0.0000   0.0000  24.8920   0.0000   0.0000   0.0000  24.8920 " ConfE="      -5944.2591" DelE="          0.0000"
Cr     0.00686487   -0.00078578    3.41369364       1
Cr     3.47230662   -0.02706643   -0.05824367       2
Cr    -0.02000732   -0.00828953   -3.66178931       3
Cr    -3.54969225    0.05071162   -0.07178996       4
Co    -0.00673376   -3.60043616   -0.04997742       5
Cr     0.01155951    3.45644406   -0.09186012       6
Cr     0.05835866   -1.68155796    1.63969364       7
Cr     0.06650868    1.64029693    1.68700837       8
Co     1.75218261   -1.76593109   -0.01504305       9
Ni     1.76682523    1.71190167   -0.07508887      10
Ni    -1.82382928   -0.01881381    1.69297732      11
Ni     1.74370688   -0.05171682   -1.89502925      12
Co    -1.77372177   -0.01288448   -1.84448854      13
Ni    -1.77871287   -1.79109899   -0.08488952      14
Cr    -1.77987558    1.76116835   -0.09555841      15
Ni    -0.01965976   -1.79659490   -1.85268945      16
Ni    -0.01579390    1.73075913   -1.87147554      17
Co     0.00000000    0.00000000    0.00000000      18
          18
Lattice="  24.8920   0.0000   0.0000   0.0000  24.8920   0.0000   0.0000   0.0000  24.8920 " ConfE="      -5944.0045" DelE="          0.2546"
Cr     0.02364780    0.00949354    3.34630382       1
Cr     3.42731357   -0.02275063   -0.03790892       2
Cr    -0.00578187   -0.00620743   -3.66946971       3
Cr    -3.55807726    0.06061543   -0.05869370       4
Co    -0.01618124   -3.63978898   -0.05426419       5
Cr     0.02110392    3.53035697   -0.10475231       6
Cr    -0.04686493   -1.91816096    1.72510363       7
Cr     0.02001159    1.84272525    1.73102041       8
Co     1.78885008   -1.87188287   -0.04959685       9
Ni     1.78139064    1.79771640   -0.08918809      10
Ni    -1.80159326   -0.02472481    1.68474045      11
Ni     1.72945868   -0.05018191   -1.84186852      12
Co    -1.74081723   -0.00682661   -1.80369699      13
Ni    -1.74181712   -1.77845773   -0.06908959      14
Cr    -1.67220451    1.70996115   -0.06292221      15
Ni    -0.00880067   -1.79224316   -1.82557661      16
Ni     0.00144816    1.72652960   -1.83501099      17
Co     0.42364656   -0.03615131    0.60519506      18
          18
Lattice="  24.8920   0.0000   0.0000   0.0000  24.8920   0.0000   0.0000   0.0000  24.8920 " ConfE="      -5944.7048" DelE="         -0.4457"
Cr    -0.02030987    0.00587224    3.45810566       1
Cr     3.50741067   -0.02198445   -0.08773754       2
Cr    -0.02324571   -0.00061397   -3.68166473       3
Cr    -3.56733892    0.05519866   -0.07430402       4
Co    -0.01401765   -3.62961245   -0.05610803       5
Cr     0.00929019    3.50472882   -0.10795904       6
Cr     0.03218626   -1.72388376    1.62310024       7
Cr     0.01259589    1.67204315    1.64695252       8
Co     1.70187924   -1.78610362   -0.04150218       9
Ni     1.72598875    1.70905056   -0.09510239      10
Ni    -1.75472929   -0.02799054    1.64238353      11
Ni     1.72464336   -0.05550860   -1.86627517      12
Co    -1.76329312   -0.00291221   -1.82027763      13
Ni    -1.75239027   -1.77675531   -0.09205697      14
Cr    -1.75097726    1.74042386   -0.10162463      15
Ni    -0.02677797   -1.78457627   -1.85307068      16
Ni    -0.02296650    1.71815691   -1.85180407      17
Co     1.68609628   -0.03024988    1.67190035      18
