          18
Lattice="  24.8920   0.0000   0.0000   0.0000  24.8920   0.0000   0.0000   0.0000  24.8920 " ConfE="      -5949.7850" DelE="          0.0000"
Cr    -0.01905213   -3.40827259    0.02551008       1
Cr     0.05285865    0.02126829   -3.51091634       2
Cr     0.02299936    3.58326565    0.01765069       3
Ni     0.02019831    0.05437824    3.59405005       4
Co    -3.52076854    0.04632374    0.04401106       5
Cr     3.55875757   -0.04323028    0.06623857       6
Cr    -1.76570640   -1.75071596   -0.00128573       7
Ni     1.76612162   -1.72765951    0.00317125       8
Ni    -1.73166275    0.00458464   -1.75378254       9
Ni     1.76829186    0.01371259   -1.78706672      10
Ni     0.01365524   -1.70783510    1.81593111      11
Co     0.03735329    1.84435499   -1.73415807      12
Cr    -0.00968108    1.80154394    1.81013935      13
Co    -1.76590470    0.07063626    1.79483193      14
Co     1.82778495    0.02685529    1.79971986      15
Cr    -1.74920451    1.83234900    0.01373932      16
Ni     1.78527188    1.78295997    0.03517857      17
Ni     0.00000000    0.00000000    0.00000000      18
          18
Lattice="  24.8920   0.0000   0.0000   0.0000  24.8920   0.0000   0.0000   0.0000  24.8920 " ConfE="      -5949.2032" DelE="          0.5819"
Cr     0.00943663   -3.43725768    0.03181817       1
Cr     0.05369786   -0.01239817   -3.45005742       2
Cr     0.04429432    3.58921323    0.01285237       3
Ni     0.02371242    0.03920460    3.57883496       4
Co    -3.58006015    0.06749483    0.04784392       5
Cr     3.64478614   -0.01066332    0.07565486       6
Cr    -1.95544165   -1.77543901    0.04713215       7
Ni     1.99814659   -1.74451806    0.09203549       8
Ni    -1.85173594    0.06313651   -1.76828159       9
Ni     1.88608683    0.05455739   -1.77524311      10
Ni     0.02988708   -1.66976943    1.69157158      11
Co     0.02773077    1.78160272   -1.70308628      12
Cr    -0.00442481    1.71865577    1.73335714      13
Co    -1.72774519    0.07586502    1.71622816      14
Co     1.83914198    0.02367154    1.78504862      15
Cr    -1.69223146    1.77451694   -0.00047920      16
Ni     1.77151318    1.74193714    0.03071554      17
Ni     0.00348487   -1.06905282   -0.90713644      18
          18
Lattice="  24.8920   0.0000   0.0000   0.0000  24.8920   0.0000   0.0000   0.0000  24.8920 " ConfE="      -5949.8756" DelE="         -0.0906"
Cr    -0.02156391   -3.47059057    0.06354381       1
Cr     0.03724032    0.07304991   -3.55678288       2
Cr     0.03279258    3.60140386    0.02216391       3
Ni     0.02302781    0.05332800    3.60214072       4
Co    -3.56000216    0.06363211    0.04829486       5
Cr     3.58671734   -0.03671341    0.06978553       6
Cr    -1.76756562   -1.70021842    0.02409439       7
Ni     1.76551731   -1.69568225    0.01445359       8
Ni    -1.74626715    0.04101493   -1.72516014       9
Ni     1.78291977    0.04674368   -1.77794222      10
Ni     0.01573221   -1.67679039    1.75494509      11
Co     0.02236286    1.80223906   -1.69472303      12
Cr    -0.00673626    1.77015787    1.77921249      13
Co    -1.71493188    0.09025255    1.72917103      14
Co     1.82309967    0.03104062    1.78879301      15
Cr    -1.69546082    1.79704266    0.01890105      16
Ni     1.75732541    1.75671132    0.04046425      17
Ni     0.01215749   -1.68480967   -1.73800454      18
