          18
Lattice="  24.8920   0.0000   0.0000   0.0000  24.8920   0.0000   0.0000   0.0000  24.8920 " ConfE="      -5941.3871" DelE="          0.0000"
Ni    -0.01721273   -0.03798238   -3.55141644       1
Ni     3.42680963   -0.07257233    0.07100284       2
Ni    -0.09243304   -0.02565593    3.64885409       3
Co    -3.52702555   -0.05076417    0.06261994       4
Cr    -0.00692111   -3.70072108    0.04609442       5
Cr    -0.02821766    3.50930668   -0.02338376       6
Cr     0.14083717   -1.69521676   -1.78756311       7
Cr     0.13360672    1.65457236   -1.81246816       8
Co     1.66400661   -1.83881508    0.01893875       9
Co     1.68536665    1.72099749    0.06426858      10
Ni    -1.81331290   -0.03359372   -1.75844548      11
Cr     1.67646065   -0.06590598    1.86454056      12
Cr    -1.79634088   -0.03700007    1.79801013      13
Cr    -1.73338524   -1.84593611    0.02684113      14
Cr    -1.78809867    1.74840947    0.06395350      15
Cr    -0.02025953   -1.86507498    1.87516618      16
Co    -0.07702378    1.76451332    1.82890257      17
Cr     0.00000000    0.00000000    0.00000000      18
          18
Lattice="  24.8920   0.0000   0.0000   0.0000  24.8920   0.0000   0.0000   0.0000  24.8920 " ConfE="      -5941.0527" DelE="          0.3344"
Ni    -0.02258346   -0.05018833   -3.52470791       1
Ni     3.39860134   -0.06723359    0.07062400       2
Ni    -0.08414293   -0.02350751    3.66465724       3
Co    -3.51727910   -0.04967237    0.04410305       4
Cr    -0.02721190   -3.78509716    0.07165200       5
Cr    -0.05808388    3.60013517   -0.01029113       6
Cr     0.03238241   -1.98887444   -1.85837466       7
Cr     0.02411703    1.91053406   -1.87012519       8
Co     1.64499162   -1.92783691    0.06080345       9
Co     1.68149816    1.82367472    0.10333705      10
Ni    -1.71581077   -0.03659608   -1.74302381      11
Cr     1.58069588   -0.05519794    1.78463861      12
Cr    -1.70375457   -0.04662042    1.76446851      13
Cr    -1.55373833   -1.70172329    0.00280592      14
Cr    -1.64667891    1.65444652    0.01638103      15
Cr     0.00742469   -1.86079814    1.88093570      16
Co    -0.07582492    1.73314562    1.76939897      17
Cr     0.96817819   -0.01875704   -1.08974309      18
          18
Lattice="  24.8920   0.0000   0.0000   0.0000  24.8920   0.0000   0.0000   0.0000  24.8920 " ConfE="      -5941.5267" DelE="         -0.1396"
Ni    -0.05167270   -0.04570212   -3.54233019       1
Ni     3.50465137   -0.05932941    0.08319082       2
Ni    -0.08559756   -0.03033259    3.64744887       3
Co    -3.57575374   -0.05372455    0.05559995       4
Cr    -0.00798261   -3.70967100    0.03307356       5
Cr    -0.04673442    3.55542340   -0.01735967       6
Cr     0.00534296   -1.81977699   -1.73787932       7
Cr    -0.00493291    1.75434106   -1.74266763       8
Co     1.65351062   -1.81471899    0.01840305       9
Co     1.64552077    1.69967691    0.06869768      10
Ni    -1.76948264   -0.03680347   -1.70240711      11
Cr     1.61582224   -0.04319255    1.76358987      12
Cr    -1.72477704   -0.04333196    1.74668621      13
Cr    -1.72489431   -1.80990835    0.03935812      14
Cr    -1.76442524    1.71744196    0.05967869      15
Cr    -0.00061609   -1.82384696    1.79090840      16
Co    -0.10209209    1.73251527    1.76946606      17
Cr     1.68610984   -0.01072521   -1.66366728      18
