          18
Lattice="  24.8920   0.0000   0.0000   0.0000  24.8920   0.0000   0.0000   0.0000  24.8920 " ConfE="      -5943.2593" DelE="          0.0000"
Ni     0.01692814    0.00933593   -3.51312796       1
Co    -0.02827058    3.56852238   -0.01768122       2
Cr     0.01777787   -3.57845310    0.03281792       3
Cr    -0.01117655   -0.00314920    3.55852857       4
Co    -3.57140285   -0.02299724   -0.02194267       5
Cr     3.48531184    0.03284834   -0.06040732       6
Ni    -1.75793073    1.75602188   -0.01022958       7
Ni     1.73269053    1.79517267   -0.06427570       8
Ni    -1.73549124    0.03122260   -1.78753545       9
Ni    -0.01236745   -1.79191501   -1.78144857      10
Co     1.83283008    0.00741339   -1.74860307      11
Ni     1.76359180   -1.78381783   -0.01372361      12
Co     0.01891696    1.72745844    1.82325062      13
Cr    -1.81740679   -1.76368110   -0.02020026      14
Cr     0.00290322   -1.78603601    1.79905950      15
Cr     1.78213429    0.02074173    1.77334722      16
Co    -1.77515325   -0.00832771    1.79777686      17
Ni     0.00000000    0.00000000    0.00000000      18
          18
Lattice="  24.8920   0.0000   0.0000   0.0000  24.8920   0.0000   0.0000   0.0000  24.8920 " ConfE="      -5939.2785" DelE="          3.9808"
Ni    -0.03128201    0.03952474   -3.40262286       1
Co    -0.04460438    3.60409813   -0.06573606       2
Cr     0.01358168   -3.60085050    0.01638055       3
Cr    -0.12973359    0.06723419    3.55443514       4
Co    -3.56597935   -0.03163543   -0.06810543       5
Cr     3.49081365    0.05534990   -0.11763157       6
Ni    -1.84272934    1.78722150   -0.02799489       7
Ni     1.72491414    1.89161835   -0.20242608       8
Ni    -0.19615153    0.21222492   -0.64121961       9
Ni    -0.01226602   -1.86291937   -1.82405377      10
Co     1.92609469   -0.00439225   -1.81372274      11
Ni     1.74361763   -1.76022724   -0.07520088      12
Co    -0.18558206    1.93579042    1.79247494      13
Cr    -1.84350318   -1.64893644   -0.13209204      14
Cr    -0.14325014   -1.75203586    1.62115641      15
Cr     2.21350829   -1.05084111    3.03628376      16
Co    -1.80506964    0.01567216    1.77278672      17
Ni     1.34832682    0.21253618    1.37091852      18
          18
Lattice="  24.8920   0.0000   0.0000   0.0000  24.8920   0.0000   0.0000   0.0000  24.8920 " ConfE="      -5939.4330" DelE="          3.8263"
Ni    -0.03930051    0.02984673   -3.47105976       1
Co    -0.03860173    3.58080302   -0.04140822       2
Cr    -0.00480168   -3.55699762    0.02713264       3
Cr    -0.08654623    0.05466810    3.52112881       4
Co    -3.54697802   -0.04737604   -0.07250074       5
Cr     3.51502239    0.08965419   -0.18754261       6
Ni    -1.79093120    1.74085989   -0.06691297       7
Ni     1.73113132    1.83819168   -0.12867539       8
Ni    -0.09234083    0.03431196   -0.12239543       9
Ni    -0.06199270   -1.76907279   -1.79318597      10
Co     1.84837512    0.00706319   -1.78786783      11
Ni     1.74240444   -1.77420880   -0.06098802      12
Co    -0.07479478    1.80281533    1.77851494      13
Cr    -1.86370156   -1.70619484   -0.08957538      14
Cr    -0.03392626   -1.75068184    1.73833935      15
Cr     2.50758818   -1.16538049    3.26802485      16
Co    -1.80194045   -0.00153180    1.79307831      17
Ni     1.68843637    0.12146398    1.56930529      18
