          18
Lattice="  24.8920   0.0000   0.0000   0.0000  24.8920   0.0000   0.0000   0.0000  24.8920 " ConfE="      -5927.3196" DelE="          0.0000"
Ni    -0.05487230    0.02916992   -3.63553896       1
Co     3.44477099    0.01535954   -0.05668280       2
Cr    -0.04606826    0.06687331    3.38525466       3
Cr    -3.67696309    0.03079968   -0.08410904       4
Cr    -0.05383943   -3.56247973   -0.08227605       5
Cr    -0.10974060    3.59675315   -0.05774816       6
Ni    -0.04531527    1.79451843   -1.80897637       7
Cr    -0.09383497    1.82196042    1.68085731       8
Cr    -0.03261384   -1.77626702    1.70940411       9
Co     1.66806627   -1.73522348   -0.02876300      10
Cr     1.77838377    1.73117293    0.07793484      11
Ni    -1.85038459   -1.76897928   -0.08037361      12
Cr     1.70109449    0.04863885   -1.82548388      13
Co    -1.81494951    0.03190467   -1.78981628      14
Co    -0.07928824   -1.74121604   -1.85059080      15
Cr    -1.90769334    0.03321461    1.67581643      16
Cr    -1.91446391    1.83095490   -0.06719917      17
Cr     0.00000000    0.00000000    0.00000000      18
          18
Lattice="  24.8920   0.0000   0.0000   0.0000  24.8920   0.0000   0.0000   0.0000  24.8920 " ConfE="      -5926.8289" DelE="          0.4907"
Ni    -0.04200866    0.02775734   -3.64250098       1
Co     3.36488838    0.01086566   -0.04744506       2
Cr    -0.10833221    0.10153854    3.42608201       3
Cr    -3.65934409    0.03126284   -0.06167436       4
Cr    -0.06534814   -3.64607657   -0.12099052       5
Cr    -0.12926610    3.65603865   -0.08542592       6
Ni    -0.00597635    1.77412796   -1.76964761       7
Cr    -0.16733437    1.95090751    1.70327037       8
Cr    -0.14697397   -1.98090219    1.74581251       9
Co     1.69529787   -1.90148496   -0.07546311      10
Cr     1.78219651    1.89110065    0.04695466      11
Ni    -1.79403760   -1.74784425   -0.05700867      12
Cr     1.68170693    0.02555621   -1.78641216      13
Co    -1.75410329    0.03467683   -1.73146281      14
Co    -0.03478726   -1.70092368   -1.77865459      15
Cr    -1.88702904    0.03337481    1.67994808      16
Cr    -1.81206721    1.73702967   -0.07150604      17
Cr     0.57596904   -0.05372595    0.59825702      18
          18
Lattice="  24.8920   0.0000   0.0000   0.0000  24.8920   0.0000   0.0000   0.0000  24.8920 " ConfE="      -5927.3816" DelE="         -0.0620"
Ni    -0.05419381    0.02466570   -3.64666621       1
Co     3.49477772    0.01956066   -0.09616261       2
Cr    -0.02638795    0.11656793    3.50750537       3
Cr    -3.62616525    0.03195543   -0.04291914       4
Cr    -0.05215057   -3.62757711   -0.13875203       5
Cr    -0.11045587    3.63518803   -0.08871108       6
Ni    -0.06435332    1.79327144   -1.83797885       7
Cr    -0.05065622    1.87095603    1.65974578       8
Cr    -0.06811204   -1.84441367    1.62186514       9
Co     1.62990418   -1.76017168   -0.10269713      10
Cr     1.70102037    1.80739819   -0.10343178      11
Ni    -1.81610787   -1.77270316   -0.10469722      12
Cr     1.64696496    0.02848259   -1.74574306      13
Co    -1.78564611    0.03162566   -1.77030614      14
Co    -0.09071367   -1.75427854   -1.87091326      15
Cr    -1.63253270    0.04763637    1.55485753      16
Cr    -1.83463674    1.80377625   -0.09396018      17
Cr     1.57777605   -0.01034022    1.51118964      18
