          18
Lattice="  24.8920   0.0000   0.0000   0.0000  24.8920   0.0000   0.0000   0.0000  24.8920 " ConfE="      -5924.0705" DelE="          0.0000"
Cr    -3.37824519    0.05509905   -0.15180434       1
Co     0.06231581    0.07068034   -3.61623048       2
Ni     3.63637154    0.05560477   -0.02889343       3
Cr     0.09293708    0.05659535    3.53559511       4
Ni     0.12838247   -3.50573382   -0.00948720       5
Co     0.09448024    3.62752181    0.02249945       6
Cr    -1.62333641   -1.68724222   -0.00160243       7
Ni    -1.66591205    1.79734047   -0.10088365       8
Ni     0.07307952   -1.67801079   -1.79728662       9
Ni     0.08614982    1.76904283   -1.82051264      10
Cr    -1.65353558    0.08619797    1.78083200      11
Ni     1.88730876    0.02055347   -1.79811842      12
Ni     1.83657143    0.04293615    1.76529232      13
Co     0.08066260   -1.73008302    1.78567536      14
Co     0.06878491    1.82440074    1.77562996      15
Ni     1.87173604   -1.74048512    0.00627361      16
Ni     1.84899497    1.80238382   -0.00750261      17
Co     0.00000000    0.00000000    0.00000000      18
          18
Lattice="  24.8920   0.0000   0.0000   0.0000  24.8920   0.0000   0.0000   0.0000  24.8920 " ConfE="      -5923.5367" DelE="          0.5339"
Cr    -3.34571715    0.10565321   -0.12632795       1
Co     0.06152024    0.05602809   -3.59504391       2
Ni     3.62985779    0.06090447   -0.03855705       3
Cr     0.07360752    0.06117926    3.54913464       4
Ni     0.15907883   -3.54853333   -0.01211525       5
Co     0.11904509    3.70003237    0.04092266       6
Cr    -1.69094115   -1.98462935   -0.03099837       7
Ni    -1.67139758    2.02374089    0.01828514       8
Ni     0.13884441   -1.80661604   -1.84500153       9
Ni     0.07625060    1.83302792   -1.81056131      10
Cr    -1.61661890    0.08967543    1.74578719      11
Ni     1.81214240    0.02011791   -1.76927619      12
Ni     1.77864346    0.04451378    1.72456520      13
Co     0.02146075   -1.67186079    1.68492876      14
Co     0.05800721    1.82580156    1.77759077      15
Ni     1.84727502   -1.73748323   -0.00570712      16
Ni     1.80036163    1.79788257   -0.01247144      17
Co    -0.86042327   -0.06725733   -0.63164724      18
          18
Lattice="  24.8920   0.0000   0.0000   0.0000  24.8920   0.0000   0.0000   0.0000  24.8920 " ConfE="      -5924.4891" DelE="         -0.4185"
Cr    -3.44527932    0.07416923   -0.05485782       1
Co     0.07059439    0.06728198   -3.63044779       2
Ni     3.64765823    0.05708359   -0.02958429       3
Cr     0.09814518    0.06501214    3.57439988       4
Ni     0.12941614   -3.52036281   -0.00534238       5
Co     0.10217550    3.64735259    0.03846176       6
Cr    -1.60412129   -1.67222242    0.01693515       7
Ni    -1.61041339    1.79915614   -0.03249218       8
Ni     0.10170139   -1.67668034   -1.75853228       9
Ni     0.11329451    1.78726168   -1.80005903      10
Cr    -1.59587392    0.07370594    1.73498839      11
Ni     1.86931507    0.02372843   -1.78373644      12
Ni     1.81389270    0.04346342    1.75349128      13
Co     0.05435519   -1.67511603    1.73076344      14
Co     0.07495841    1.80209093    1.78390303      15
Ni     1.86339391   -1.73055196    0.01267171      16
Ni     1.84038275    1.79123697   -0.00005601      17
Co    -1.66978984    0.05318258   -1.75121828      18
