          18
Lattice="  24.8920   0.0000   0.0000   0.0000  24.8920   0.0000   0.0000   0.0000  24.8920 " ConfE="      -5931.9664" DelE="          0.0000"
Ni    -0.15241413   -3.33744284   -0.08972172       1
Cr     3.14391959   -0.04118006    0.03255126       2
Co    -0.20282114    0.15420580   -3.68473079       3
Cr    -0.22619879    3.81747880   -0.14638924       4
Co    -0.19468673    0.21170420    3.42646175       5
Co    -3.74276751    0.18421271   -0.15864199       6
Ni     1.57107541    0.15228886   -1.87825049       7
Ni     1.59364214    1.97657353   -0.10000009       8
Cr     1.51896581    0.24325082    1.80710300       9
Cr    -0.13380390   -1.61569688   -1.86028207      10
Co    -0.14803732   -1.58891411    1.64437139      11
Ni    -1.94490518    0.17800104    1.63563181      12
Co    -1.98793489   -1.57535069   -0.11163838      13
Cr    -0.19329224    1.94598024   -1.90839502      14
Co    -0.23018072    2.02418544    1.62053614      15
Cr    -1.95397657    0.13075815   -1.91484828      16
Cr    -1.94267504    1.92304559   -0.17843896      17
Cr     0.00000000    0.00000000    0.00000000      18
          18
Lattice="  24.8920   0.0000   0.0000   0.0000  24.8920   0.0000   0.0000   0.0000  24.8920 " ConfE="      -5931.3180" DelE="          0.6484"
Ni    -0.15862766   -3.31557676   -0.09978545       1
Cr     3.36369345    0.17466684   -0.08620422       2
Co    -0.20505421    0.16509053   -3.73512891       3
Cr    -0.22605723    3.77784563   -0.14448012       4
Co    -0.21790260    0.22632221    3.47346667       5
Co    -3.73026704    0.17787379   -0.16724241       6
Ni     1.61829152    0.24869797   -2.00129849       7
Ni     1.56690409    1.91220100   -0.09446269       8
Cr     1.48606230    0.30386889    1.87013370       9
Cr    -0.07451409   -1.63458047   -2.00369086      10
Co    -0.23979690   -1.61531937    1.76587915      11
Ni    -1.92098358    0.18017848    1.62537408      12
Co    -1.88674514   -1.53209553   -0.12387118      13
Cr    -0.18033671    1.86900190   -1.86232683      14
Co    -0.22892886    1.98956391    1.61228721      15
Cr    -1.81825879    0.06255024   -1.82449510      16
Cr    -1.91736596    1.89208856   -0.18198749      17
Cr     0.78713088   -0.78929273   -0.03778578      18
          18
Lattice="  24.8920   0.0000   0.0000   0.0000  24.8920   0.0000   0.0000   0.0000  24.8920 " ConfE="      -5931.8868" DelE="          0.0796"
Ni    -0.18469214   -3.39053307   -0.09119728       1
Cr     3.36456371    0.18480536   -0.02499926       2
Co    -0.20570836    0.15959039   -3.70254123       3
Cr    -0.24217486    3.81049452   -0.14486593       4
Co    -0.19342193    0.22232448    3.44719311       5
Co    -3.76063123    0.18759283   -0.15662594       6
Ni     1.54603460    0.19070586   -1.84657424       7
Ni     1.55787546    1.95507572   -0.09775017       8
Cr     1.46652057    0.24014810    1.69931809       9
Cr    -0.17016009   -1.56322350   -1.84630684      10
Co    -0.16199496   -1.53573096    1.60320411      11
Ni    -1.93847419    0.18534287    1.62459287      12
Co    -1.93133383   -1.53596162   -0.12897555      13
Cr    -0.21492021    1.90864695   -1.88830329      14
Co    -0.23596277    2.00462686    1.60955435      15
Cr    -1.94780106    0.13565575   -1.88512177      16
Cr    -1.91176975    1.89035189   -0.16810329      17
Cr     1.50542685   -1.48083073   -0.04839361      18
