          18
Lattice="  24.8920   0.0000   0.0000   0.0000  24.8920   0.0000   0.0000   0.0000  24.8920 " ConfE="      -5939.4181" DelE="          0.0000"
Co    -0.00273377   -3.50283009    0.00951617       1
Ni    -0.03628421    0.00005887    3.63518860       2
Ni    -0.03806794    3.55682761    0.12393823       3
Cr     0.01515518   -0.05277604   -3.34688566       4
Ni    -3.60763673    0.00269814    0.08924815       5
Co     3.51412727    0.00186568    0.06859618       6
Ni     1.69252345   -1.73630107    0.05491902       7
Ni    -1.79280246   -1.75578350    0.06368791       8
Ni    -1.80892990   -0.00124162   -1.67889801       9
Cr     1.75340960    0.09663167   -1.64924654      10
Ni    -0.05542717   -1.75555999    1.87263062      11
Ni    -0.02486707    1.75155413    1.86142153      12
Co     1.77227747   -0.02667983    1.85244948      13
Co     1.73053138    1.77036708    0.05971847      14
Co    -0.06236252    1.85179460   -1.69721679      15
Co    -1.81493711    0.04628421    1.83027504      16
Cr    -1.83001591    1.80281439    0.08916173      17
Cr     0.00000000    0.00000000    0.00000000      18
          18
Lattice="  24.8920   0.0000   0.0000   0.0000  24.8920   0.0000   0.0000   0.0000  24.8920 " ConfE="      -5938.0389" DelE="          1.3792"
Co    -0.00274912   -3.38249669   -0.00562109       1
Ni    -0.03483324    0.05073517    3.58605571       2
Ni    -0.01913316    3.44858298    0.15322637       3
Cr    -0.00024068   -0.01488023   -3.36109579       4
Ni    -3.74767418   -0.00273344    0.07877486       5
Co     3.62611457    0.01806358    0.09047407       6
Ni     1.85488390   -1.73086542    0.14986137       7
Ni    -1.94877821   -1.72458829    0.09779886       8
Ni    -2.02973296    0.04956273   -1.70651986       9
Cr     1.96721857    0.16712067   -1.57194010      10
Ni    -0.07116512   -1.62283185    1.77325708      11
Ni    -0.04395431    1.01416625    1.13781445      12
Co     1.95004634   -0.04984153    1.91774145      13
Co     1.89590663    1.78274917    0.04067340      14
Co    -0.03506178    1.72859544   -1.64995209      15
Co    -2.02055866    0.03100748    1.87432063      16
Cr    -1.93302140    1.75048029    0.02410289      17
Cr    -0.01796376   -0.77208561   -0.83579794      18
          18
Lattice="  24.8920   0.0000   0.0000   0.0000  24.8920   0.0000   0.0000   0.0000  24.8920 " ConfE="      -5938.7027" DelE="          0.7154"
Co    -0.00606868   -3.50069375    0.04523326       1
Ni    -0.03543124    0.05564763    3.58768506       2
Ni    -0.03462892    3.44934182    0.17738671       3
Cr     0.01094272    0.04220268   -3.41313431       4
Ni    -3.69561964   -0.01660099    0.07876912       5
Co     3.58430579    0.00842457    0.06754971       6
Ni     1.71273276   -1.67691803    0.13273912       7
Ni    -1.83419443   -1.71013889    0.10100872       8
Ni    -1.83354805    0.02710197   -1.64441264       9
Cr     1.70100638    0.15754242   -1.54806410      10
Ni    -0.07517438   -1.65498297    1.84158481      11
Ni    -0.06516778    1.00706495    1.10930561      12
Co     1.94025169   -0.03956527    1.93577628      13
Co     1.89417648    1.79761478    0.04774703      14
Co    -0.04719273    1.75412972   -1.62865060      15
Co    -2.02370665    0.03818322    1.90909141      16
Cr    -1.97966521    1.80968411    0.06959192      17
Cr     0.01907393   -1.65817451   -1.59379583      18
