          18
Lattice="  24.8920   0.0000   0.0000   0.0000  24.8920   0.0000   0.0000   0.0000  24.8920 " ConfE="      -5948.0118" DelE="          0.0000"
Ni     0.04589139   -3.45467516   -0.00935581       1
Ni    -0.02038536    0.00555853   -3.58357081       2
Cr     3.50203274   -0.04676942   -0.00172602       3
Co    -0.01451622    0.06994198    3.53788018       4
Co    -3.57321995    0.05171582   -0.02146693       5
Cr     0.03174560    3.58679278   -0.01897074       6
Ni     1.78405062    0.02309119    1.74871299       7
Ni     1.75768510   -0.00928328   -1.76182528       8
Cr     0.02405950   -1.65037468    1.69709272       9
Ni    -1.78679799    0.05027651    1.77142766      10
Ni    -1.77903544    1.80432224    0.00096102      11
Ni     1.77559429    1.80439098   -0.02089945      12
Co    -0.02747091   -1.69569045   -1.74118847      13
Cr    -1.83535761   -1.72438733   -0.03965927      14
Cr     0.04546740    1.78831875    1.78375396      15
Cr    -0.03238044    1.75774532   -1.79756815      16
Cr    -1.84834547    0.01241085   -1.80055956      17
Co     0.00000000    0.00000000    0.00000000      18
          18
Lattice="  24.8920   0.0000   0.0000   0.0000  24.8920   0.0000   0.0000   0.0000  24.8920 " ConfE="      -5947.2832" DelE="          0.7286"
Ni     0.02593556   -3.45158906   -0.01394254       1
Ni    -0.02634578    0.02357322   -3.65072204       2
Cr     3.44863064   -0.08417750    0.01181789       3
Co    -0.02426189    0.09620820    3.59218645       4
Co    -3.56928330    0.04403650   -0.02564217       5
Cr     0.05091420    3.59186450   -0.01392229       6
Ni     1.80117643    0.09454482    1.88627511       7
Ni     1.75237036    0.03392387   -1.87224625       8
Cr    -0.05404576   -1.64183601    1.90672450       9
Ni    -1.75416382    0.05191652    1.75436815      10
Ni    -1.73597373    1.75659244   -0.01119046      11
Ni     1.75861462    1.73488759   -0.01643735      12
Co    -0.08362870   -1.71085322   -1.90740771      13
Cr    -1.73497578   -1.68873403   -0.02881409      14
Cr     0.04723524    1.74530584    1.72757913      15
Cr    -0.02947210    1.69789456   -1.74812159      16
Cr    -1.77930107   -0.03090857   -1.77924495      17
Co     0.97058756   -1.11710998    0.06781180      18
          18
Lattice="  24.8920   0.0000   0.0000   0.0000  24.8920   0.0000   0.0000   0.0000  24.8920 " ConfE="      -5947.9285" DelE="          0.0833"
Ni    -0.00026965   -3.51022373   -0.03321320       1
Ni    -0.02703002    0.01692551   -3.60351954       2
Cr     3.53861644   -0.00319393    0.00377986       3
Co    -0.01546505    0.07328424    3.55798848       4
Co    -3.58408517    0.05208382   -0.02327632       5
Cr     0.02820312    3.61634335   -0.01566508       6
Ni     1.76723040    0.05376656    1.76439199       7
Ni     1.73821333    0.03479069   -1.76456524       8
Cr     0.00430929   -1.60195604    1.66677090       9
Ni    -1.75640443    0.04598203    1.74117810      10
Ni    -1.74582725    1.76989588   -0.01243330      11
Ni     1.73714714    1.77230621   -0.01553446      12
Co    -0.07185924   -1.58524467   -1.66537406      13
Cr    -1.77882489   -1.70208285   -0.05079130      14
Cr     0.03221423    1.77106905    1.75095112      15
Cr    -0.04423479    1.74790772   -1.77304350      16
Cr    -1.85653971    0.02790794   -1.81008136      17
Co     1.72438354   -1.71524825    0.03702660      18
