          18
Lattice="  24.8920   0.0000   0.0000   0.0000  24.8920   0.0000   0.0000   0.0000  24.8920 " ConfE="      -5938.4261" DelE="          0.0000"
Ni    -3.49115409    0.06401625    0.00451796       1
Co    -0.06883209    0.00775134   -3.52837671       2
Co     0.01336944   -3.55006904    0.02482380       3
Co     0.01138130    3.57688868   -0.00052533       4
Cr     0.00821496    0.01987982    3.56893946       5
Co     3.58572564    0.03624917    0.00190475       6
Ni    -0.01962521   -1.73551720   -1.74673608       7
Co     0.00315684    1.76808879   -1.79818053       8
Cr    -1.73207815   -1.71276843   -0.02848503       9
Cr    -1.61864100    1.76349316   -0.13844699      10
Ni    -1.76161937    0.02369297    1.79092814      11
Ni     1.78591229   -1.74824616    0.01772632      12
Ni     1.79573172    0.03398748    1.78322693      13
Co     1.80491916    0.04169262   -1.76879064      14
Cr     1.71644425    1.80116426    0.01004662      15
Co     0.02046907   -1.77111879    1.82241228      16
Co    -0.01723955    1.80505242    1.79746164      17
Ni     0.00000000    0.00000000    0.00000000      18
          18
Lattice="  24.8920   0.0000   0.0000   0.0000  24.8920   0.0000   0.0000   0.0000  24.8920 " ConfE="      -5937.8734" DelE="          0.5527"
Ni    -3.46944834    0.03933402   -0.00142325       1
Co    -0.05091057    0.00351649   -3.49700850       2
Co     0.02993952   -3.59779027    0.04775840       3
Co     0.03671703    3.63931338    0.00042353       4
Cr    -0.01601553    0.01454157    3.56840599       5
Co     3.59596131    0.04173907    0.00340820       6
Ni     0.06806189   -1.85434518   -1.75415695       7
Co     0.08280145    1.90330421   -1.82449799       8
Cr    -1.72011297   -1.96071929    0.05086565       9
Cr    -1.66695893    2.00495251    0.08912091      10
Ni    -1.72114058   -0.01164320    1.70452855      11
Ni     1.75498623   -1.73313603    0.02840327      12
Ni     1.75777565    0.03278666    1.75279206      13
Co     1.75570485    0.04555719   -1.71646048      14
Cr     1.62852459    1.73029085   -0.02126067      15
Co     0.01343317   -1.77168646    1.79540657      16
Co    -0.00499861    1.78172883    1.74633805      17
Ni    -1.01087434    0.01977642   -0.89190491      18
          18
Lattice="  24.8920   0.0000   0.0000   0.0000  24.8920   0.0000   0.0000   0.0000  24.8920 " ConfE="      -5938.4641" DelE="         -0.0380"
Ni    -3.51794447    0.06029092    0.03096940       1
Co    -0.01534983    0.01298043   -3.58945824       2
Co     0.01691758   -3.58307781    0.02942633       3
Co     0.03814656    3.62048547    0.00446066       4
Cr     0.01036426    0.01767095    3.60135175       5
Co     3.59431080    0.03297965    0.00342142       6
Ni     0.01260241   -1.73388907   -1.72492711       7
Co     0.05501375    1.77824397   -1.77090746       8
Cr    -1.64230229   -1.69206856    0.04819109       9
Cr    -1.49680992    1.73814820   -0.03502904      10
Ni    -1.73266752    0.02032880    1.76889067      11
Ni     1.74135827   -1.71565975    0.02351431      12
Ni     1.75395415    0.03594580    1.75861130      13
Co     1.76937041    0.04736313   -1.73824849      14
Cr     1.64889052    1.72371059   -0.01447288      15
Co     0.00862437   -1.76208460    1.80404900      16
Co     0.00160924    1.78822784    1.76859691      17
Ni    -1.71542207    0.01982922   -1.74326516      18
