          18
Lattice="  24.8920   0.0000   0.0000   0.0000  24.8920   0.0000   0.0000   0.0000  24.8920 " ConfE="      -5947.8768" DelE="          0.0000"
Ni    -3.60947533   -0.02685722    0.02756231       1
Co    -0.03683691    3.52637348    0.05533771       2
Co     3.44216433    0.03337532    0.03917643       3
Co    -0.04613360   -3.57553014    0.01953929       4
Co    -0.03785385   -0.05281394    3.54089281       5
Cr    -0.04553805    0.00813333   -3.56432540       6
Ni    -1.83821498   -0.02072135   -1.76704751       7
Cr     1.73283770    0.01738754   -1.74269293       8
Cr     0.11627896    1.70853862    1.69442236       9
Co     1.71009960   -0.01337015    1.77022179      10
Co     0.00801453    1.75943689   -1.72007818      11
Ni    -0.06536327   -1.78862724   -1.79094608      12
Cr    -1.80139449    1.75735621    0.03521458      13
Cr    -1.78278598   -1.79175106    0.04930501      14
Co    -1.82219923    0.01431189    1.76961463      15
Cr     1.70109737   -1.82804186    0.00656294      16
Cr    -0.04638872   -1.76997936    1.80846071      17
Co     0.00000000    0.00000000    0.00000000      18
          18
Lattice="  24.8920   0.0000   0.0000   0.0000  24.8920   0.0000   0.0000   0.0000  24.8920 " ConfE="      -5947.2987" DelE="          0.5781"
Ni    -3.60055660   -0.00743025    0.02128377       1
Co    -0.02674398    3.48510767    0.04583671       2
Co     3.38898138    0.01238867    0.04081329       3
Co    -0.06241133   -3.57581084    0.01604139       4
Co    -0.05486998   -0.06642025    3.60302232       5
Cr    -0.07264281    0.01159492   -3.64321754       6
Ni    -1.82123247   -0.00327955   -1.80281084       7
Cr     1.75483631   -0.04867731   -1.96794744       8
Cr     0.10503885    1.70731324    1.83471651       9
Co     1.78017464   -0.12480940    1.98812715      10
Co    -0.01993361    1.77495656   -1.86564725      11
Ni    -0.06479680   -1.76375083   -1.81962906      12
Cr    -1.60747163    1.60258941    0.02396960      13
Cr    -1.61969269   -1.59594718    0.06409504      14
Co    -1.81242130    0.03194175    1.79376847      15
Cr     1.60418530   -1.79502089    0.00696330      16
Cr    -0.03125486   -1.72308635    1.80733374      17
Co     0.84931232    0.62915271   -0.01338252      18
          18
Lattice="  24.8920   0.0000   0.0000   0.0000  24.8920   0.0000   0.0000   0.0000  24.8920 " ConfE="      -5947.9304" DelE="         -0.0536"
Ni    -3.62747036   -0.01939284    0.02271825       1
Co    -0.06598945    3.55789576    0.04935801       2
Co     3.48943060   -0.00841383    0.05710585       3
Co    -0.05506710   -3.57289319    0.01886919       4
Co    -0.04639189   -0.06043182    3.57393413       5
Cr    -0.04870677    0.00437831   -3.61066359       6
Ni    -1.83897639   -0.02244783   -1.77878902       7
Cr     1.71762126   -0.00274337   -1.74421330       8
Cr     0.04223825    1.64520298    1.73424592       9
Co     1.66255779   -0.05643366    1.75544408      10
Co    -0.03842675    1.72326972   -1.74251746      11
Ni    -0.07034377   -1.74985641   -1.78416427      12
Cr    -1.67983959    1.63181044    0.02164859      13
Cr    -1.67625719   -1.65558984    0.06741654      14
Co    -1.82655343    0.01197571    1.77135650      15
Cr     1.60776609   -1.73389219    0.00795204      16
Cr    -0.05292105   -1.73189111    1.80801984      17
Co     1.65318680    1.70288299    0.01807282      18
