          18
Lattice="  24.8920   0.0000   0.0000   0.0000  24.8920   0.0000   0.0000   0.0000  24.8920 " ConfE="      -5925.8471" DelE="          0.0000"
Co    -0.00216973    3.37035499    0.06408296       1
Ni     0.00165749   -0.06105298   -3.45235937       2
Ni     0.00558900   -3.65203719    0.11779423       3
Cr    -0.00290659   -0.06244769    3.59501594       4
Cr    -3.55284757   -0.11288494    0.03259535       5
Ni     3.56921007   -0.10017594    0.04896267       6
Co    -1.81337450    1.71067717    0.03507734       7
Co     1.82549403    1.69596862    0.06197060       8
Ni    -1.75234993   -0.04877488   -1.73296170       9
Co     1.78396808   -0.07385926   -1.75451585      10
Co     0.02538509    1.67726630    1.86727361      11
Co    -0.01929711   -1.91161089   -1.72755670      12
Cr    -0.00602220   -1.84543354    1.84902366      13
Ni    -1.79099609   -0.09410528    1.80147298      14
Ni     1.78113857   -0.09044328    1.80721763      15
Co    -1.76000324   -1.87120033    0.05843739      16
Ni     1.76081533   -1.85424230    0.04477106      17
Ni     0.00000000    0.00000000    0.00000000      18
          18
Lattice="  24.8920   0.0000   0.0000   0.0000  24.8920   0.0000   0.0000   0.0000  24.8920 " ConfE="      -5925.4148" DelE="          0.4322"
Co     0.00463241    3.32628778    0.06213992       1
Ni     0.00300953   -0.05334312   -3.40857668       2
Ni     0.00852110   -3.65131176    0.10843545       3
Cr     0.00446053   -0.05760631    3.60770283       4
Cr    -3.59499817   -0.12507751    0.04571875       5
Ni     3.62120727   -0.12618001    0.04728523       6
Co    -1.94692881    1.72144967    0.07384894       7
Co     1.99435671    1.72574766    0.12696541       8
Ni    -1.87210257   -0.09589024   -1.75908268       9
Co     1.92508929   -0.11795616   -1.79824791      10
Co     0.02893016    1.63269194    1.81206603      11
Co    -0.00985394   -1.86553559   -1.70292928      12
Cr    -0.01211287   -1.79525806    1.79944149      13
Ni    -1.79251362   -0.09220839    1.79214474      14
Ni     1.77647137   -0.09829705    1.77946388      15
Co    -1.74253802   -1.84109431    0.04925136      16
Ni     1.76291437   -1.83582974    0.03088406      17
Ni     0.04178510    0.58635503   -0.57925978      18
          18
Lattice="  24.8920   0.0000   0.0000   0.0000  24.8920   0.0000   0.0000   0.0000  24.8920 " ConfE="      -5925.9381" DelE="         -0.0910"
Co     0.00335181    3.42348080    0.09143366       1
Ni    -0.00296706   -0.12060568   -3.49267385       2
Ni     0.01278987   -3.68092213    0.12362024       3
Cr    -0.00382049   -0.06211698    3.59960148       4
Cr    -3.58461822   -0.13290487    0.05234263       5
Ni     3.58054510   -0.11291712    0.05517920       6
Co    -1.81376473    1.68650827    0.05527582       7
Co     1.82841665    1.67370474    0.08290801       8
Ni    -1.75322922   -0.11000108   -1.68055779       9
Co     1.79321085   -0.12458505   -1.73757605      10
Co     0.02505139    1.63287076    1.80298000      11
Co    -0.01832108   -1.89403714   -1.69898435      12
Cr    -0.01774612   -1.84096271    1.83306930      13
Ni    -1.76772413   -0.10442929    1.78095184      14
Ni     1.74804402   -0.10986427    1.78249742      15
Co    -1.73076798   -1.87764361    0.08153266      16
Ni     1.73876495   -1.85059067    0.05346429      17
Ni     0.02829642    1.58149553   -1.63193611      18
