          18
Lattice="  24.8920   0.0000   0.0000   0.0000  24.8920   0.0000   0.0000   0.0000  24.8920 " ConfE="      -5938.2385" DelE="          0.0000"
Ni    -0.01548332    0.03579763   -3.45782914       1
Ni    -0.01611914   -3.57179521   -0.00992429       2
Co    -0.01499821    3.50153747    0.03366019       3
Co     3.53855947    0.00068313    0.01098009       4
Cr    -3.58770465   -0.01735323    0.08078862       5
Cr    -0.01491728   -0.00568239    3.57613553       6
Ni     1.75442083    0.02109086   -1.72476903       7
Ni     1.72789796    1.81401096    0.02276182       8
Cr    -1.76602909    0.02236992   -1.70648772       9
Ni    -1.78811532   -0.00731545    1.81630939      10
Cr    -1.74316810    1.72954680   -0.02666113      11
Co     1.72768810    0.04505140    1.80753972      12
Cr    -0.00824392    1.82709451    1.84661979      13
Co    -0.06489778   -1.80619529   -1.77418842      14
Co     1.72557480   -1.77092987    0.04514039      15
Co    -1.77998667   -1.77664215    0.03616916      16
Cr     0.04356691   -1.82740581    1.78656089      17
Cr     0.00000000    0.00000000    0.00000000      18
          18
Lattice="  24.8920   0.0000   0.0000   0.0000  24.8920   0.0000   0.0000   0.0000  24.8920 " ConfE="      -5937.3779" DelE="          0.8606"
Ni     0.00350320    0.03679391   -3.42438233       1
Ni    -0.00929868   -3.56499698   -0.01517005       2
Co    -0.00920588    3.43657801    0.02251581       3
Co     3.62358582   -0.02850665    0.02982596       4
Cr    -3.66635233   -0.04978248    0.09689583       5
Cr    -0.01903953   -0.00376499    3.56755909       6
Ni     1.91145892   -0.02042329   -1.74183248       7
Ni     1.84819754    1.81056689    0.04687231       8
Cr    -1.92084561   -0.09129277   -1.76798161       9
Ni    -1.77464783    0.00800753    1.76932646      10
Cr    -1.91471693    1.76013960    0.03903774      11
Co     1.70540676    0.04962408    1.76279904      12
Cr     0.00105097    1.76132506    1.79894372      13
Co    -0.04327599   -1.72408308   -1.73101058      14
Co     1.71063191   -1.73242744    0.04866045      15
Co    -1.74386977   -1.71041708    0.01431008      16
Cr     0.06610868   -1.72244621    1.70146504      17
Cr    -0.08470494    0.84454925   -0.86870463      18
          18
Lattice="  24.8920   0.0000   0.0000   0.0000  24.8920   0.0000   0.0000   0.0000  24.8920 " ConfE="      -5938.1508" DelE="          0.0876"
Ni    -0.01528573    0.00143896   -3.51298436       1
Ni    -0.01689135   -3.58030420   -0.00684883       2
Co    -0.01765675    3.56126823    0.05711845       3
Co     3.56796932   -0.00279401    0.01671544       4
Cr    -3.62086337   -0.03584549    0.09001677       5
Cr    -0.01576458   -0.01404855    3.58382510       6
Ni     1.73426538   -0.00151399   -1.68051629       7
Ni     1.72297341    1.80106046    0.04928978       8
Cr    -1.75134016   -0.05339162   -1.66571573       9
Ni    -1.77654808   -0.02110153    1.79224075      10
Cr    -1.77309758    1.70098867    0.02114500      11
Co     1.68849400    0.04011589    1.78264442      12
Cr    -0.02441649    1.75265319    1.77752218      13
Co    -0.07182589   -1.73598246   -1.73353059      14
Co     1.70432766   -1.76070038    0.07232568      15
Co    -1.75681223   -1.74958537    0.03861369      16
Cr     0.07622760   -1.75406664    1.72503675      17
Cr    -0.07009370    1.74372270   -1.69473586      18
