          18
Lattice="  24.8920   0.0000   0.0000   0.0000  24.8920   0.0000   0.0000   0.0000  24.8920 " ConfE="      -5925.6466" DelE="          0.0000"
Ni     0.04582187   -3.55071407    0.02754054       1
Co     3.61742467   -0.00935985    0.03577368       2
Ni    -3.54495738   -0.04689732    0.01923250       3
Ni    -0.00035136   -0.03003622    3.57927025       4
Co     0.04857942   -0.00558324   -3.51809674       5
Cr     0.02741956    3.40374718   -0.03299326       6
Ni     1.80037811   -1.70385056   -0.02837704       7
Co     1.80199791    1.67530523    0.04725974       8
Co     0.09008355    1.66665515   -1.75593490       9
Ni     0.01621112   -1.79037003    1.78593731      10
Co     0.00895093   -1.78076867   -1.74192748      11
Co     0.00416972    1.72526252    1.77938315      12
Cr    -1.69781828    1.67916025   -0.01279763      13
Co     1.82831763   -0.02125717    1.84545685      14
Co    -1.77747853   -0.02008332    1.76933108      15
Cr    -1.73609139   -1.78017376   -0.01362035      16
Co    -1.77012618   -0.02161579   -1.73628133      17
Co     0.00000000    0.00000000    0.00000000      18
          18
Lattice="  24.8920   0.0000   0.0000   0.0000  24.8920   0.0000   0.0000   0.0000  24.8920 " ConfE="      -5924.5686" DelE="          1.0779"
Ni     0.03043344   -3.63414859    0.04935125       1
Co     3.50495217   -0.04220342   -0.00035595       2
Ni    -3.53032133   -0.04559928    0.01605507       3
Ni     0.01383826   -0.02958434    3.57071098       4
Co     0.08505805   -0.00501991   -3.43371990       5
Cr     0.02808942    3.50273932   -0.00554386       6
Ni     1.84330420   -1.95319940    0.05304274       7
Co     1.82105755    1.84989046    0.09296640       8
Co     0.02190094    1.87334441   -1.77411824       9
Ni     0.01982815   -1.78913282    1.74346508      10
Co    -0.02059599   -1.95383132   -1.73583622      11
Co     0.00466157    1.72066409    1.72452351      12
Cr    -1.63382085    1.67563091   -0.01086280      13
Co     1.79094421   -0.02590730    1.75296264      14
Co    -1.72180319   -0.01598578    1.70908293      15
Cr    -1.68565570   -1.77180473   -0.02635914      16
Co    -1.64837603   -0.02869659   -1.66239366      17
Co     0.92798708   -0.03013396   -0.88031824      18
          18
Lattice="  24.8920   0.0000   0.0000   0.0000  24.8920   0.0000   0.0000   0.0000  24.8920 " ConfE="      -5925.3153" DelE="          0.3312"
Ni     0.03555395   -3.57867127    0.03482731       1
Co     3.63076107   -0.01705074    0.04464238       2
Ni    -3.55860627   -0.04887882    0.01643320       3
Ni    -0.00346216   -0.02690648    3.58775389       4
Co     0.03654339   -0.01155144   -3.53770875       5
Cr     0.00958094    3.45288033   -0.03380310       6
Ni     1.75878483   -1.72298565    0.03246979       7
Co     1.77315386    1.65857395    0.06561585       8
Co     0.04562067    1.66515124   -1.69285228       9
Ni     0.00081222   -1.76951507    1.76347985      10
Co    -0.00340259   -1.78764145   -1.70907323      11
Co    -0.01974270    1.68735215    1.71322286      12
Cr    -1.67439159    1.65637916    0.00136374      13
Co     1.82135613   -0.01969527    1.84047920      14
Co    -1.75811961   -0.02384637    1.72499955      15
Cr    -1.72333740   -1.76105592   -0.01887023      16
Co    -1.71231724   -0.03675727   -1.67782904      17
Co     1.79920719   -0.04670126   -1.73458432      18
