          18
Lattice="  24.8920   0.0000   0.0000   0.0000  24.8920   0.0000   0.0000   0.0000  24.8920 " ConfE="      -5929.6129" DelE="          0.0000"
Co    -3.46039659   -0.00079607   -0.03175081       1
Cr    -0.00905147   -0.05107828   -3.47314555       2
Cr     3.55376788   -0.04852868    0.07251203       3
Ni     0.00095523   -0.00615163    3.59042314       4
Co     0.04061479    3.52190756    0.06354379       5
Cr     0.14471200   -3.48984568    0.08948203       6
Cr    -1.76421014    1.74984229   -0.08159906       7
Cr    -1.74216421   -1.71054107   -0.00142642       8
Co     0.03596824    1.77559418   -1.68628720       9
Ni     0.03730906   -1.78062528   -1.72369672      10
Cr    -1.76912214   -0.00279727    1.76864468      11
Ni     1.83520737   -0.00298212   -1.73768095      12
Co     1.78051049    0.00795093    1.80792146      13
Cr    -0.00655210    1.77355419    1.75680129      14
Co     0.00671366   -1.78679513    1.78934227      15
Cr     1.80670911    1.78912072    0.05500254      16
Co     1.84447279   -1.76318570    0.06027706      17
Ni     0.00000000    0.00000000    0.00000000      18
          18
Lattice="  24.8920   0.0000   0.0000   0.0000  24.8920   0.0000   0.0000   0.0000  24.8920 " ConfE="      -5929.1643" DelE="          0.4486"
Co    -3.46193732    0.00002121   -0.01540913       1
Cr    -0.02134302   -0.03479538   -3.41406152       2
Cr     3.55740088   -0.05871997    0.07293871       3
Ni    -0.00679863   -0.00288350    3.58758075       4
Co     0.03054920    3.58600013    0.08575098       5
Cr     0.18844217   -3.55220094    0.11674757       6
Cr    -1.81108169    2.04671659   -0.00036186       7
Cr    -1.70120389   -1.93807808    0.08346103       8
Co     0.15788416    1.90606385   -1.68228998       9
Ni     0.09197418   -1.86781454   -1.70640636      10
Cr    -1.71692217   -0.02668626    1.68244109      11
Ni     1.80259886   -0.00668608   -1.70735211      12
Co     1.70290354    0.01715969    1.73458174      13
Cr    -0.04107468    1.72060221    1.68517233      14
Co    -0.01488458   -1.75207541    1.74006548      15
Cr     1.76735772    1.75150638    0.06683604      16
Co     1.81271769   -1.75833112    0.05895875      17
Ni    -1.06625638    0.06081115   -0.87662632      18
          18
Lattice="  24.8920   0.0000   0.0000   0.0000  24.8920   0.0000   0.0000   0.0000  24.8920 " ConfE="      -5929.6169" DelE="         -0.0040"
Co    -3.52547242   -0.00948472    0.01252383       1
Cr     0.04294266   -0.05671081   -3.54068370       2
Cr     3.55004624   -0.05534293    0.07475891       3
Ni     0.00459831   -0.01265024    3.62726507       4
Co     0.03737498    3.57154808    0.07176523       5
Cr     0.15202081   -3.51799784    0.08344888       6
Cr    -1.65159164    1.73549318    0.00538557       7
Cr    -1.63582101   -1.69267146    0.08101891       8
Co     0.06226203    1.76180685   -1.64711526       9
Ni     0.05035872   -1.76828353   -1.70737833      10
Cr    -1.71627476   -0.00165609    1.74085633      11
Ni     1.79404558   -0.00606077   -1.71271246      12
Co     1.72638436    0.01757422    1.76532652      13
Cr     0.02291196    1.73452946    1.76735711      14
Co    -0.00396038   -1.74799651    1.76253098      15
Cr     1.72986255    1.75472412    0.05248620      16
Co     1.80793290   -1.74222803    0.06361171      17
Ni    -1.70590232    0.00958521   -1.71877320      18
