          18
Lattice="  24.8920   0.0000   0.0000   0.0000  24.8920   0.0000   0.0000   0.0000  24.8920 " ConfE="      -5940.2853" DelE="          0.0000"
Cr    -3.56266465   -0.01773123   -0.04836599       1
Cr    -0.01112837    0.00232305    3.51148747       2
Ni     0.00599294   -3.51814469   -0.04830458       3
Co     0.04956575    0.03589105   -3.61127081       4
Co     3.55397864    0.02520543   -0.07040826       5
Co     0.06254734    3.51840104   -0.03375135       6
Ni    -1.77919062   -1.72956994   -0.03670221       7
Ni     0.02063636   -1.72921616    1.74255609       8
Co    -1.73263066    1.73783970    0.02306069       9
Cr    -0.02241470    1.72975296    1.77199863      10
Ni     0.01552792   -1.76942646   -1.82202468      11
Ni     0.01281318    1.77971228   -1.79278033      12
Cr     1.85239786   -1.76253949   -0.10017101      13
Co    -1.74007524    0.04095890   -1.83989370      14
Co     1.84918883    0.01688823    1.74517278      15
Cr     1.76732006    0.04090862   -1.83829181      16
Cr     1.79662203    1.77727117    0.02207125      17
Ni     0.00000000    0.00000000    0.00000000      18
          18
Lattice="  24.8920   0.0000   0.0000   0.0000  24.8920   0.0000   0.0000   0.0000  24.8920 " ConfE="      -5938.9737" DelE="          1.3116"
Cr    -3.50099249   -0.00666258   -0.04742242       1
Cr    -0.02289744   -0.00006238    3.45590515       2
Ni     0.02992561   -3.62164280   -0.06374135       3
Co     0.08871826    0.02753673   -3.48936686       4
Co     3.46638391    0.02631080   -0.09653818       5
Co     0.08474277    3.60577019   -0.05017890       6
Ni    -1.76122091   -1.88374056   -0.11627782       7
Ni     0.10550529   -1.86464950    1.70459104       8
Co    -1.76686314    1.97194349   -0.11438528       9
Cr     0.10186234    1.89705113    1.69196209      10
Ni     0.01056546   -1.89044987   -1.82819587      11
Ni    -0.04721457    1.93161998   -1.82584068      12
Cr     1.88580204   -1.89081269   -0.10879045      13
Co    -1.68369282    0.04478591   -1.73101072      14
Co     1.77036883    0.02241281    1.66435818      15
Cr     0.86580483    0.05478652   -0.84324287      16
Cr     1.83089439    1.93560520   -0.04032587      17
Ni    -1.04253004    0.04704556    0.98735022      18
          18
Lattice="  24.8920   0.0000   0.0000   0.0000  24.8920   0.0000   0.0000   0.0000  24.8920 " ConfE="      -5940.1528" DelE="          0.1324"
Cr    -3.60165575   -0.01620542   -0.06960328       1
Cr     0.03445324    0.00294040    3.56645989       2
Ni     0.03483692   -3.49201866   -0.06597206       3
Co     0.10860343    0.04985513   -3.58378454       4
Co     3.50952965    0.02703632   -0.08822201       5
Co     0.08839994    3.50431056   -0.04621095       6
Ni    -1.75172277   -1.73367912   -0.06800739       7
Ni     0.05749210   -1.73264567    1.71813338       8
Co    -1.70764599    1.75698324   -0.02761793       9
Cr     0.03187002    1.76899432    1.76580048      10
Ni     0.05783220   -1.73537707   -1.83715508      11
Ni     0.06435399    1.75151060   -1.79796568      12
Cr     1.86212904   -1.63262099   -0.17443288      13
Co    -1.74451290    0.04147159   -1.80881095      14
Co     1.83159847    0.01904682    1.79020007      15
Cr     0.12580838    0.03457988   -0.09103768      16
Cr     1.83610316    1.68900535   -0.05444648      17
Ni    -1.75689353    0.00881585    1.73398145      18
