          18
Lattice="  24.8920   0.0000   0.0000   0.0000  24.8920   0.0000   0.0000   0.0000  24.8920 " ConfE="      -5939.6144" DelE="          0.0000"
Co     0.02110142   -0.01102458    3.49778164       1
Co    -3.54388465   -0.00455868   -0.01961249       2
Co    -0.04549809   -3.47122983   -0.04638798       3
Cr    -0.02828908   -0.00350239   -3.59181919       4
Cr     3.49152773    0.00694042   -0.05730612       5
Co     0.00012872    3.63366312   -0.00658103       6
Ni    -1.73524613   -0.02267251    1.76436089       7
Cr    -1.68015756   -1.80479657    0.04550213       8
Cr    -1.73995746    1.81374879    0.04479447       9
Co     0.01298565    1.84127333    1.74000303      10
Ni     1.73578924    0.02027855   -1.81798434      11
Ni    -0.01223441    1.82128987   -1.79911160      12
Cr     1.69861079   -0.00051251    1.75903316      13
Co    -1.78015322    0.03389125   -1.76253074      14
Co     1.69319190   -1.73128599    0.04088302      15
Cr    -0.01819442   -1.77093659   -1.83183054      16
Co     1.76089532    1.83338620   -0.02054544      17
Co     0.00000000    0.00000000    0.00000000      18
          18
Lattice="  24.8920   0.0000   0.0000   0.0000  24.8920   0.0000   0.0000   0.0000  24.8920 " ConfE="      -5939.0455" DelE="          0.5689"
Co     0.00814108   -0.04311678    3.43408626       1
Co    -3.61266009    0.01769578   -0.02215910       2
Co    -0.03217050   -3.39725384   -0.04290011       3
Cr    -0.02034377   -0.03114090   -3.59685961       4
Cr     3.56731548    0.03038235   -0.09374790       5
Co    -0.01116670    3.61800392   -0.00329673       6
Ni    -1.93265474    0.00894660    1.83740505       7
Cr    -1.85977006   -1.77321502    0.00013028       8
Cr    -1.65565400    1.65370839    0.08368986       9
Co    -0.00274015    1.75057562    1.69835755      10
Ni     1.72707866    0.01406071   -1.78001238      11
Ni    -0.01102361    1.78060666   -1.77081279      12
Cr     1.86671710    0.05087051    1.73785313      13
Co    -1.76618265    0.02939839   -1.72970825      14
Co     1.91066238   -1.80526633   -0.07227039      15
Cr    -0.01000734   -1.73909039   -1.75438828      16
Co     1.76434456    1.81435464   -0.02023790      17
Co     0.01314658   -0.72771592    0.73267600      18
          18
Lattice="  24.8920   0.0000   0.0000   0.0000  24.8920   0.0000   0.0000   0.0000  24.8920 " ConfE="      -5939.7972" DelE="         -0.1828"
Co     0.00551313    0.02569565    3.53849109       1
Co    -3.57558987    0.01006613   -0.02628828       2
Co    -0.03337957   -3.51526305   -0.06452875       3
Cr    -0.02625465   -0.01066342   -3.61241819       4
Cr     3.53246408    0.01596973   -0.07557390       5
Co     0.00381875    3.64271423   -0.00433982       6
Ni    -1.75854517    0.02235904    1.74338100       7
Cr    -1.69174162   -1.73452018   -0.00658039       8
Cr    -1.71110424    1.78052964    0.04020776       9
Co     0.01154376    1.78767630    1.70203496      10
Ni     1.70403466    0.02841783   -1.79192590      11
Ni    -0.01020933    1.80601787   -1.77795502      12
Cr     1.69185267    0.04922905    1.70236051      13
Co    -1.73992013    0.04261916   -1.72120897      14
Co     1.68246122   -1.68001247   -0.00141060      15
Cr    -0.02432241   -1.74270280   -1.77136299      16
Co     1.74981442    1.80944926   -0.01747295      17
Co    -0.02163615   -1.71818926    1.72544604      18
