          18
Lattice="  24.8920   0.0000   0.0000   0.0000  24.8920   0.0000   0.0000   0.0000  24.8920 " ConfE="      -5929.1858" DelE="          0.0000"
Co    -0.04442756   -3.53196095   -0.00536036       1
Co    -0.03369780    0.03965201   -3.57874009       2
Cr     0.00166742    3.60207065   -0.00741604       3
Co     0.01971298    0.07715222    3.56672922       4
Co    -3.55862197    0.02580079   -0.00217196       5
Cr     3.53367490    0.00717264   -0.07275604       6
Cr    -1.80957382   -1.69020235    0.00335442       7
Ni     1.72716939   -1.74716979   -0.02733264       8
Co    -1.76118716   -0.00602770   -1.74507528       9
Co     1.78685560    0.03869998   -1.78758918      10
Ni     0.04116864   -1.73659589    1.81254988      11
Ni     0.00100078    1.77977380   -1.75854842      12
Cr    -0.02974177    1.78220831    1.81356153      13
Co    -1.78218338    0.03843901    1.77707525      14
Cr     1.79959320    0.06228618    1.81264668      15
Cr    -1.84212329    1.74597289    0.02855813      16
Ni     1.77800163    1.80096821    0.02918966      17
Ni     0.00000000    0.00000000    0.00000000      18
          18
Lattice="  24.8920   0.0000   0.0000   0.0000  24.8920   0.0000   0.0000   0.0000  24.8920 " ConfE="      -5927.8818" DelE="          1.3040"
Co    -0.05965922   -3.46789594   -0.01472168       1
Co    -0.04011854    0.02920559   -3.52842952       2
Cr     0.05091552    3.57123266    0.01879037       3
Co     0.01582603    0.10028589    3.50069783       4
Co    -3.67193694    0.04252513    0.00095725       5
Cr     3.65000256    0.00451149   -0.06038619       6
Cr    -1.99078932   -1.64699005    0.08199259       7
Ni     1.89156084   -1.74783375    0.04950942       8
Co    -1.97403832    0.11593497   -1.79183435       9
Co     1.93599866    0.09750840   -1.77994875      10
Ni     0.00325950   -1.65732988    1.71518938      11
Ni     0.00015132    1.68205279   -1.65406923      12
Cr    -0.13165717    0.92413342    1.00417869      13
Co    -1.96339558   -0.02042110    1.80826724      14
Cr     1.88558487    0.03962049    1.80756809      15
Cr    -1.99690755    1.73351879   -0.04849515      16
Ni     1.89109613    1.78758713    0.02610378      17
Ni    -0.04665171   -0.86725299   -0.90128503      18
          18
Lattice="  24.8920   0.0000   0.0000   0.0000  24.8920   0.0000   0.0000   0.0000  24.8920 " ConfE="      -5928.9311" DelE="          0.2547"
Co    -0.04201623   -3.54323451    0.00298338       1
Co    -0.04964178    0.06611885   -3.60596838       2
Cr    -0.01622706    3.55407099    0.03123883       3
Co     0.04435126    0.11357524    3.50694917       4
Co    -3.54659078    0.05491125    0.00900123       5
Cr     3.55272878    0.03957030   -0.04531149       6
Cr    -1.80806026   -1.67323677    0.03663578       7
Ni     1.74168119   -1.71685225    0.00963134       8
Co    -1.80074523    0.06105613   -1.75498296       9
Co     1.78041999    0.07125884   -1.76700535      10
Ni     0.03828995   -1.76612959    1.79831499      11
Ni    -0.00365241    1.77466887   -1.78289031      12
Cr    -0.05247698    0.08557733    0.08925941      13
Co    -1.71989354    0.08703520    1.75190752      14
Cr     1.74633895    0.08666437    1.85131485      15
Cr    -1.80430380    1.78154428    0.06799122      16
Ni     1.73145599    1.79222538    0.07614664      17
Ni    -0.02152840   -1.68625723   -1.77086987      18
