          18
Lattice="  24.8920   0.0000   0.0000   0.0000  24.8920   0.0000   0.0000   0.0000  24.8920 " ConfE="      -5938.5357" DelE="          0.0000"
Cr     0.02524847   -0.00846435    3.40423597       1
Co     0.01387887   -3.50907176   -0.02212072       2
Cr     0.03738304    3.63707824   -0.09886411       3
Co     0.07973627    0.00099314   -3.62859105       4
Cr    -3.52612425    0.06214152   -0.07757906       5
Cr     3.56766048    0.00987143   -0.02761378       6
Cr    -1.73034002   -0.00709384    1.68927424       7
Co     1.78918602    0.04919213    1.70952793       8
Ni     0.01525616   -1.75381230   -1.84905245       9
Co    -1.72204906   -1.74250271   -0.01666464      10
Cr     1.70819271   -1.73835787    0.07803302      11
Ni     0.01104200    1.82115554   -1.85872236      12
Ni    -1.74688863    0.04371864   -1.86238812      13
Co     0.02479057    1.85172171    1.67744613      14
Co    -1.75824017    1.83043099   -0.07289007      15
Co     1.79144832    1.83401371   -0.07508910      16
Cr     1.77275263   -0.00449138   -1.74547205      17
Cr     0.00000000    0.00000000    0.00000000      18
          18
Lattice="  24.8920   0.0000   0.0000   0.0000  24.8920   0.0000   0.0000   0.0000  24.8920 " ConfE="      -5937.8762" DelE="          0.6595"
Cr     0.03394279    0.05227431    3.39784000       1
Co     0.01005598   -3.45262576   -0.00742478       2
Cr     0.02992713    3.61622896   -0.07272346       3
Co     0.08677994   -0.00522691   -3.61578500       4
Cr    -3.61735305    0.10089789   -0.11067561       5
Cr     3.68904813    0.04527027   -0.06144535       6
Cr    -1.86778951    0.06573285    1.69287685       7
Co     1.93553806    0.11559585    1.68361674       8
Ni     0.02837849   -1.72533209   -1.78700183       9
Co    -1.89108298   -1.75692810   -0.08318842      10
Cr     1.93876567   -1.80334172   -0.00987709      11
Ni     0.01085843    1.78778276   -1.80455863      12
Ni    -1.73195943    0.03390552   -1.80488398      13
Co     0.02795658    1.75848695    1.62228382      14
Co    -1.76513166    1.78790896   -0.05243214      15
Co     1.79783724    1.79897463   -0.08632285      16
Cr     1.74039638    0.01071065   -1.63987828      17
Cr     0.03736145   -0.73079483    0.63348684      18
          18
Lattice="  24.8920   0.0000   0.0000   0.0000  24.8920   0.0000   0.0000   0.0000  24.8920 " ConfE="      -5938.3682" DelE="          0.1675"
Cr     0.01646444    0.06172862    3.48697122       1
Co     0.01918432   -3.56340497   -0.07618191       2
Cr     0.04323773    3.64084033   -0.10080670       3
Co     0.07852624    0.00744438   -3.65428818       4
Cr    -3.54400730    0.06961166   -0.07502144       5
Cr     3.58613848    0.02754799   -0.03750430       6
Cr    -1.66057347    0.09716553    1.58320553       7
Co     1.76307514    0.04721229    1.66079913       8
Ni     0.01945298   -1.71511799   -1.81549044       9
Co    -1.73049242   -1.70832049   -0.05744818      10
Cr     1.76164819   -1.68661244   -0.05878784      11
Ni     0.00934922    1.81929616   -1.84979695      12
Ni    -1.73180816    0.05735313   -1.84458548      13
Co     0.03275325    1.79331240    1.64049040      14
Co    -1.74689299    1.82196352   -0.07634451      15
Co     1.78080290    1.80806032   -0.09785152      16
Cr     1.73561480    0.04379895   -1.72916776      17
Cr     0.01325067   -1.71358136    1.62845107      18
