          18
Lattice="  24.8920   0.0000   0.0000   0.0000  24.8920   0.0000   0.0000   0.0000  24.8920 " ConfE="      -5942.6197" DelE="          0.0000"
Co     0.00776501    0.02244824    3.47965616       1
Ni    -3.49923619   -0.01494560    0.00062153       2
Cr     0.08103863   -0.06338734   -3.55438099       3
Ni     3.60048576   -0.00070789   -0.03157668       4
Co     0.02152830   -3.55044697   -0.00543904       5
Co     0.06926189    3.53126934    0.01212233       6
Cr    -0.03634130   -1.70385623    1.72743412       7
Cr     0.03204559    1.72395359    1.80922195       8
Cr    -1.74524504   -1.78077068   -0.01101319       9
Ni    -1.71773873    1.74673092    0.02217029      10
Cr     1.85355663    0.02574462    1.75216320      11
Ni    -1.75436847   -0.00982758   -1.82125158      12
Co     1.77202305    0.01915489   -1.79624645      13
Ni     1.80986730   -1.76872048   -0.02595039      14
Cr     1.81672938    1.79075726   -0.01848926      15
Co     0.02448424   -1.77703131   -1.77123639      16
Cr     0.10949660    1.74100525   -1.84571592      17
Ni     0.00000000    0.00000000    0.00000000      18
          18
Lattice="  24.8920   0.0000   0.0000   0.0000  24.8920   0.0000   0.0000   0.0000  24.8920 " ConfE="      -5942.0955" DelE="          0.5242"
Co     0.01306520    0.00751452    3.46026856       1
Ni    -3.46288019   -0.00301488    0.02063749       2
Cr     0.05992535   -0.05816002   -3.55518068       3
Ni     3.59817932   -0.00970613   -0.00885726       4
Co     0.04276726   -3.59185730   -0.00435949       5
Co     0.07312751    3.58343650   -0.00192043       6
Cr     0.05919252   -1.93009617    1.76944553       7
Cr     0.06669975    1.91535104    1.80961149       8
Cr    -1.76954449   -1.94921529   -0.12185250       9
Ni    -1.76112177    1.90112617   -0.01698602      10
Cr     1.72515971   -0.02404578    1.70765570      11
Ni    -1.72874835    0.00579916   -1.74625443      12
Co     1.71106493    0.02729204   -1.71818557      13
Ni     1.81152625   -1.79211079   -0.01947200      14
Cr     1.75181759    1.72555901    0.00744425      15
Co     0.00224796   -1.75035708   -1.69737210      16
Cr     0.09306067    1.69309445   -1.77001708      17
Ni    -0.71266006   -0.03541014    0.71752683      18
          18
Lattice="  24.8920   0.0000   0.0000   0.0000  24.8920   0.0000   0.0000   0.0000  24.8920 " ConfE="      -5942.6718" DelE="         -0.0521"
Co     0.05075797    0.00844757    3.54167140       1
Ni    -3.54100384   -0.01748503   -0.02114350       2
Cr     0.07073483   -0.05503950   -3.56684710       3
Ni     3.62332849   -0.00755919   -0.02576258       4
Co     0.03687288   -3.58286551   -0.00529691       5
Co     0.07474373    3.56387698   -0.00827781       6
Cr     0.04881791   -1.69864011    1.67587178       7
Cr     0.08583977    1.72427562    1.73123069       8
Cr    -1.68492802   -1.78830956   -0.06753144       9
Ni    -1.68008824    1.73660044   -0.01611368      10
Cr     1.77560074    0.01304086    1.70054173      11
Ni    -1.73917407   -0.00478224   -1.78496851      12
Co     1.72946927    0.03772709   -1.74190854      13
Ni     1.80488198   -1.75765012   -0.03261377      14
Cr     1.79754564    1.74513163   -0.03900310      15
Co     0.00232209   -1.73239823   -1.70381243      16
Cr     0.11838695    1.69712157   -1.80802684      17
Ni    -1.71255730   -0.02354962    1.71371468      18
