          18
Lattice="  24.8920   0.0000   0.0000   0.0000  24.8920   0.0000   0.0000   0.0000  24.8920 " ConfE="      -5943.6444" DelE="          0.0000"
Ni    -3.41212458   -0.01766689   -0.00202062       1
Co     0.04261836   -3.49662463   -0.00967817       2
Ni     3.59817727    0.02006215    0.01307473       3
Ni     0.08966819    3.59978435    0.02049254       4
Ni     0.08039605    0.04597922   -3.55378937       5
Ni     0.04053292    0.02386589    3.54922156       6
Co    -1.69356684    0.03556710   -1.79492650       7
Cr    -1.74684043   -0.00157115    1.80139461       8
Co     0.08078602   -1.78493586   -1.79992123       9
Ni     0.00897672   -1.75049213    1.74053641      10
Co    -1.74568274    1.82791866   -0.03909590      11
Ni     1.84442345   -1.75282555    0.02539016      12
Ni     1.80930204    1.79841922    0.03599709      13
Ni     0.06960786    1.81308895   -1.77504295      14
Ni     0.04095978    1.79014559    1.78766358      15
Co     1.88735131   -0.02626671   -1.80381398      16
Ni     1.81903854    0.01701220    1.81152382      17
Ni     0.00000000    0.00000000    0.00000000      18
          18
Lattice="  24.8920   0.0000   0.0000   0.0000  24.8920   0.0000   0.0000   0.0000  24.8920 " ConfE="      -5943.2270" DelE="          0.4174"
Ni    -3.35318977   -0.02820094   -0.00227609       1
Co     0.03693379   -3.48189423    0.00244060       2
Ni     3.59509260    0.02217110    0.01434394       3
Ni     0.08263692    3.59866117    0.02136265       4
Ni     0.09069272    0.04841282   -3.59328050       5
Ni     0.05509310    0.03634536    3.59341472       6
Co    -1.77210679    0.11397254   -1.99969834       7
Cr    -1.78856409    0.03634010    1.95645427       8
Co     0.09138172   -1.81079906   -1.89316738       9
Ni     0.07689514   -1.77099545    1.85680418      10
Co    -1.73669728    1.80218044   -0.03992381      11
Ni     1.78668652   -1.71181138    0.02314527      12
Ni     1.78330248    1.77680697    0.03916658      13
Ni     0.06318542    1.76927431   -1.75754980      14
Ni     0.02180243    1.74857921    1.76551274      15
Co     1.87845687   -0.03358490   -1.80775978      16
Ni     1.81744241    0.02499848    1.82360678      17
Ni    -0.64148310   -0.50712623   -0.02114509      18
          18
Lattice="  24.8920   0.0000   0.0000   0.0000  24.8920   0.0000   0.0000   0.0000  24.8920 " ConfE="      -5943.7070" DelE="         -0.0625"
Ni    -3.46959236    0.00590431    0.01111211       1
Co     0.09593800   -3.53538971   -0.01212937       2
Ni     3.61917940    0.02565107    0.01237036       3
Ni     0.09091978    3.60131145    0.01575189       4
Ni     0.08599554    0.04235943   -3.56501060       5
Ni     0.05331751    0.03566958    3.57079644       6
Co    -1.64904120    0.03932336   -1.76185976       7
Cr    -1.72395143    0.02867653    1.81864644       8
Co     0.11716252   -1.77500581   -1.80338104       9
Ni     0.07149591   -1.70578738    1.75793295      10
Co    -1.72572940    1.76678786   -0.04081746      11
Ni     1.82666796   -1.72408166    0.02145733      12
Ni     1.79228537    1.77357640    0.02726650      13
Ni     0.07862154    1.78477606   -1.76365928      14
Ni     0.03068754    1.75330887    1.74817793      15
Co     1.89740343   -0.03019010   -1.80078433      16
Ni     1.81889091    0.02813736    1.79935117      17
Ni    -1.63949339   -1.70281424    0.00544777      18
