          18
Lattice="  24.8920   0.0000   0.0000   0.0000  24.8920   0.0000   0.0000   0.0000  24.8920 " ConfE="      -5945.0266" DelE="          0.0000"
Co    -0.04005124    3.57839917   -0.04281200       1
Ni     3.49532682    0.02355166    0.01096453       2
Co    -0.02550799   -3.55421241    0.05431186       3
Ni    -3.56348699    0.02365736   -0.00360447       4
Ni    -0.00439430   -0.02729541   -3.53166564       5
Co    -0.05317805    0.00088054    3.57910324       6
Ni     0.02308409    1.78717914   -1.72566771       7
Ni    -0.03084742    1.75905325    1.73068939       8
Co     1.72080724   -0.04769551   -1.73955439       9
Co     1.70109778   -0.00582331    1.80689146      10
Cr    -1.80857375    1.81833885   -0.04281987      11
Co     1.72148702   -1.81676642    0.06135946      12
Co    -1.76431447   -1.75896533    0.02696890      13
Ni    -1.77227563    0.00785363   -1.75697518      14
Ni    -1.81194836    0.00862695    1.78670944      15
Cr     0.03584342   -1.84249040   -1.75220113      16
Cr    -0.03908270   -1.76532413    1.74487790      17
Ni     0.00000000    0.00000000    0.00000000      18
          18
Lattice="  24.8920   0.0000   0.0000   0.0000  24.8920   0.0000   0.0000   0.0000  24.8920 " ConfE="      -5940.1553" DelE="          4.8713"
Co    -0.07196676    3.55700411   -0.03537751       1
Ni     3.56467728   -0.02605567   -0.06822367       2
Co    -0.02386053   -3.59138668   -0.00986464       3
Ni    -3.60329949    0.04338357   -0.01010553       4
Ni    -0.01091573   -0.03133559   -3.53367132       5
Co    -0.06108401    0.09456323    3.54685078       6
Ni    -0.03964495    1.79400799   -1.77932431       7
Ni     0.20446166    0.97887242    0.51105612       8
Co     1.58982765   -0.03289920   -1.58242258       9
Co     1.80458393   -0.07035999    1.87430066      10
Cr    -1.87567347    1.86306145   -0.03846767      11
Co     1.80050763   -1.83121154   -0.00191060      12
Co    -1.85975014   -1.73667113   -0.09893432      13
Ni    -1.78170308    0.04737167   -1.74399278      14
Ni    -1.81251159    0.09715123    1.76392967      15
Cr     0.00941397   -1.73877515   -1.61296473      16
Cr     0.95623896   -2.00185372    3.32508528      17
Ni    -0.08898755   -1.53247169    1.36565633      18
          18
Lattice="  24.8920   0.0000   0.0000   0.0000  24.8920   0.0000   0.0000   0.0000  24.8920 " ConfE="      -5944.6766" DelE="          0.3500"
Co    -0.08181485    3.54961135   -0.01239157       1
Ni     3.51603098    0.01358399    0.00364424       2
Co    -0.02606788   -3.55579787    0.04014843       3
Ni    -3.55416852    0.03284845    0.00690431       4
Ni    -0.01078032   -0.03438251   -3.53266422       5
Co    -0.05784588    0.03795619    3.57717276       6
Ni    -0.01814497    1.78581699   -1.77514679       7
Ni    -0.03439894    0.01370727    0.02339289       8
Co     1.70744799   -0.05894056   -1.74964384       9
Co     1.69190125    0.02190445    1.84524505      10
Cr    -1.74241782    1.83657779    0.01192472      11
Co     1.73486861   -1.78694005    0.05275305      12
Co    -1.78796769   -1.75380049    0.00766690      13
Ni    -1.77565568    0.01452712   -1.74823801      14
Ni    -1.78090833    0.06603603    1.79002900      15
Cr     0.02540911   -1.85378764   -1.74333961      16
Cr     1.70406693   -1.68194852    3.52887955      17
Ni    -0.04963843   -1.78001848    1.78680336      18
