          18
Lattice="  24.8920   0.0000   0.0000   0.0000  24.8920   0.0000   0.0000   0.0000  24.8920 " ConfE="      -5938.8033" DelE="          0.0000"
Co    -3.50785005    0.00456593    0.01956505       1
Cr    -0.01479616    0.00400545    3.50728481       2
Cr    -0.00545828    3.53672505    0.06212095       3
Co     0.01006698    0.05097881   -3.56541486       4
Co     3.60883371    0.02763892    0.01508126       5
Cr     0.01819752   -3.51668250   -0.00032048       6
Ni    -1.76226842    1.74725213    0.00953877       7
Cr    -0.04653209    1.72538876    1.81297731       8
Cr    -1.87472203   -1.71698480    0.00222606       9
Cr    -0.08745963   -1.70401641    1.72184783      10
Ni     1.78549525    0.01328251   -1.78894887      11
Cr    -1.72873763   -0.02769086   -1.80689155      12
Co     1.82104289    0.01196168    1.75725052      13
Cr    -0.02498843    1.76126475   -1.80838656      14
Cr     1.81858273    1.76710661    0.04227315      15
Co     0.04864746   -1.80312961   -1.73499920      16
Cr     1.87497788   -1.71988260    0.03868363      17
Ni     0.00000000    0.00000000    0.00000000      18
          18
Lattice="  24.8920   0.0000   0.0000   0.0000  24.8920   0.0000   0.0000   0.0000  24.8920 " ConfE="      -5938.0982" DelE="          0.7052"
Co    -3.53411067    0.03731977    0.00189333       1
Cr    -0.07706272    0.03705085    3.45940172       2
Cr     0.00695185    3.65067818    0.00107791       3
Co     0.01215702    0.05059007   -3.55842851       4
Co     3.63451560    0.01577521    0.02103977       5
Cr     0.04249429   -3.58727106   -0.02189412       6
Ni    -1.81509957    1.93229414   -0.07188135       7
Cr     0.01984765    1.89788855    1.70767283       8
Cr    -1.95829359   -1.91387413   -0.10560432       9
Cr     0.05523075   -1.86557248    1.73069714      10
Ni     1.77802395   -0.00504240   -1.76784669      11
Cr    -1.67140696   -0.03939686   -1.68595823      12
Co     1.75673563    0.02547181    1.72420378      13
Cr     0.00872743    1.67314314   -1.62721023      14
Cr     1.79225596    1.69172521    0.03195687      15
Co     0.02805216   -1.75438282   -1.65529574      16
Cr     1.82806100   -1.66249823    0.07213488      17
Ni    -1.21830646   -0.03220882    1.06276106      18
          18
Lattice="  24.8920   0.0000   0.0000   0.0000  24.8920   0.0000   0.0000   0.0000  24.8920 " ConfE="      -5938.5904" DelE="          0.2129"
Co    -3.56597174    0.01309630   -0.00990174       1
Cr     0.03027172    0.02134347    3.56278221       2
Cr     0.00010844    3.58621808    0.03469581       3
Co     0.01605981    0.05297671   -3.58166486       4
Co     3.63195505    0.02225248    0.01860101       5
Cr     0.04393096   -3.57980402   -0.01749230       6
Ni    -1.74513543    1.74731112   -0.01991589       7
Cr     0.01427353    1.76181558    1.73057989       8
Cr    -1.79199780   -1.74081511   -0.04091526       9
Cr    -0.00346047   -1.72424340    1.65771636      10
Ni     1.77756470    0.00693163   -1.77511091      11
Cr    -1.68300015   -0.03139341   -1.74615467      12
Co     1.74927274    0.02797795    1.71425814      13
Cr     0.00614369    1.69454689   -1.70948833      14
Cr     1.78659954    1.70850902    0.01822828      15
Co     0.04165881   -1.74684002   -1.69181089      16
Cr     1.82748139   -1.66973566    0.04072655      17
Ni    -1.73914572    0.00164840    1.74206229      18
