          18
Lattice="  24.8920   0.0000   0.0000   0.0000  24.8920   0.0000   0.0000   0.0000  24.8920 " ConfE="      -5938.2177" DelE="          0.0000"
Ni     0.05403060    3.48423709   -0.04438819       1
Ni     0.02759593   -0.03405665   -3.60049845       2
Co     3.51872854   -0.01419334    0.02453447       3
Co     0.07183070   -0.10574680    3.45669428       4
Cr    -3.57098364   -0.05059550   -0.02691314       5
Co     0.02735188   -3.61721247   -0.01011751       6
Ni     0.01125631    1.74751601    1.72071691       7
Ni     0.04426643    1.74696599   -1.77960762       8
Ni     1.77008320   -0.03500379   -1.75487009       9
Ni    -1.77185326   -0.01888167    1.73136816      10
Cr     1.77666659   -0.00144208    1.67369160      11
Ni     1.77129926   -1.84056933   -0.04263862      12
Ni    -1.75999507   -0.02258300   -1.79443725      13
Ni     0.00960798   -1.81509587   -1.80404764      14
Cr    -1.81115151    1.78935395   -0.01286463      15
Co     0.00171923   -1.82902330    1.71550609      16
Cr    -1.79434977   -1.85048400    0.00801978      17
Co     0.00000000    0.00000000    0.00000000      18
          18
Lattice="  24.8920   0.0000   0.0000   0.0000  24.8920   0.0000   0.0000   0.0000  24.8920 " ConfE="      -5937.4629" DelE="          0.7548"
Ni     0.05231371    3.44908079   -0.04257753       1
Ni     0.01067450   -0.04768632   -3.65927664       2
Co     3.50304158   -0.00889949    0.00575677       3
Co     0.05690679   -0.11402706    3.48540516       4
Cr    -3.59147369   -0.04454467   -0.03519783       5
Co     0.03802375   -3.60690355   -0.01609230       6
Ni    -0.06333371    1.79392800    1.86151576       7
Ni    -0.00002439    1.75731306   -1.90748399       8
Ni     1.80304753   -0.11055616   -1.95230126       9
Ni    -1.73752192   -0.01466790    1.70163083      10
Cr     1.77663081   -0.08314948    1.82388888      11
Ni     1.74780511   -1.76743826   -0.05380761      12
Ni    -1.72009807   -0.02261203   -1.76677323      13
Ni     0.01322624   -1.78978084   -1.80207334      14
Cr    -1.72204190    1.72328520   -0.00166518      15
Co    -0.00912652   -1.80117506    1.68784691      16
Cr    -1.76922428   -1.80771995    0.00621518      17
Co     0.94509306    0.80900547    0.02077355      18
          18
Lattice="  24.8920   0.0000   0.0000   0.0000  24.8920   0.0000   0.0000   0.0000  24.8920 " ConfE="      -5938.2789" DelE="         -0.0612"
Ni     0.02637564    3.52077169   -0.03400708       1
Ni     0.01876543   -0.04174346   -3.61139451       2
Co     3.58150814   -0.03872673    0.01101245       3
Co     0.06513747   -0.11247149    3.46846154       4
Cr    -3.62156786   -0.05437210   -0.03373243       5
Co     0.03632341   -3.62671459   -0.00888550       6
Ni    -0.01745517    1.71246599    1.70965529       7
Ni     0.01750888    1.71875228   -1.76175132       8
Ni     1.74997397   -0.05867899   -1.75517561       9
Ni    -1.75683805   -0.01918327    1.67519354      10
Cr     1.75037897   -0.00708883    1.66179646      11
Ni     1.76374466   -1.80427693   -0.03830225      12
Ni    -1.73630204   -0.03002048   -1.73843596      13
Ni     0.00503863   -1.80699959   -1.77959789      14
Cr    -1.79624541    1.79352566   -0.00152250      15
Co    -0.01149586   -1.78535177    1.66370741      16
Cr    -1.80331974   -1.85577208    0.01381716      17
Co     1.79276010    1.70162744    0.01927736      18
