          19
Lattice="  24.8920   0.0000   0.0000   0.0000  24.8920   0.0000   0.0000   0.0000  24.8920 " ConfE="      -5940.7266" DelE="          0.0000"
Ni     0.22954610    3.57323758   -0.09940514       1
Co    -2.26884840   -0.00624877    2.44101799       2
Co     3.75925966    0.00284820   -0.07290500       3
Cr     0.25426437   -0.01239395   -3.69810196       4
Cr    -3.17432044    0.04406802   -0.06056564       5
Co     0.12284032   -0.00106983    3.40710387       6
Cr     0.22424819   -3.61229768   -0.15772292       7
Ni    -1.58832578   -1.84579492   -0.07528184       8
Ni     0.17684677   -1.82887516    1.70399454       9
Co    -1.56928627    1.85513364   -0.18636838      10
Cr     0.23529817    1.80489253   -1.90993198      11
Cr    -0.08831563    1.66924935    1.70674277      12
Cr     1.97496135    1.76559911   -0.10104756      13
Co     1.93952285    0.01321427   -1.84827790      14
Cr    -1.58552620   -0.00032655   -1.93799955      15
Co     0.19156549   -1.74223559   -1.88306615      16
Cr     1.91351991   -1.75463550   -0.11478143      17
Co     1.95894394    0.01247745    1.64404430      18
Cr     0.00000000    0.00000000    0.00000000      19
          19
Lattice="  24.8920   0.0000   0.0000   0.0000  24.8920   0.0000   0.0000   0.0000  24.8920 " ConfE="      -5940.0219" DelE="          0.7047"
Ni     0.26411700    3.63594501   -0.11232370       1
Co    -2.82047264   -0.11873139    2.68515281       2
Co     3.76076215   -0.00116362   -0.05608031       3
Cr     0.21317093   -0.00974029   -3.66855450       4
Cr    -3.27901861    0.01597477   -0.03639269       5
Co     0.14096324   -0.01544638    3.40661002       6
Cr     0.26474352   -3.65302784   -0.20308611       7
Ni    -1.56891067   -1.88919030   -0.08407649       8
Ni     0.20732511   -1.94270448    1.72342520       9
Co    -1.56065445    1.93113357   -0.16040983      10
Cr     0.19699035    1.71558038   -1.79823314      11
Cr     0.27978047    1.92467362    1.73733627      12
Cr     1.89662916    1.66216164   -0.08059826      13
Co     1.96094950    0.01085818   -1.85711265      14
Cr    -1.57167211    0.00532738   -1.81641565      15
Co     0.19146908   -1.68549258   -1.83017664      16
Cr     1.81639036   -1.65431071   -0.09329601      17
Co     1.91330166   -0.02893846    1.64319288      18
Cr    -0.71379123    0.10708221    0.91810083      19
          19
Lattice="  24.8920   0.0000   0.0000   0.0000  24.8920   0.0000   0.0000   0.0000  24.8920 " ConfE="      -5940.7459" DelE="         -0.0193"
Ni     0.26654523    3.61575719   -0.11430074       1
Co    -3.29819748    0.03012168    3.40812402       2
Co     3.81332044   -0.00640031   -0.08751846       3
Cr     0.24106192   -0.00706259   -3.67720285       4
Cr    -3.34796803    0.03851106   -0.17132713       5
Co     0.18428293   -0.00621940    3.44547970       6
Cr     0.24029098   -3.59998008   -0.16327390       7
Ni    -1.53924923   -1.80377896   -0.12796959       8
Ni     0.22455518   -1.79071548    1.64418494       9
Co    -1.51842819    1.79849894   -0.14651685      10
Cr     0.25429010    1.74168285   -1.80414725      11
Cr     0.25832731    1.69470028    1.54931845      12
Cr     2.01999622    1.72821338   -0.12288399      13
Co     1.98278850    0.00646998   -1.85704297      14
Cr    -1.51180220    0.03338859   -1.81576617      15
Co     0.22712795   -1.70433728   -1.86391588      16
Cr     1.93806779   -1.73616043   -0.13954817      17
Co     1.97960715   -0.02466739    1.60285536      18
Cr    -1.50553009    0.02723681    1.50610496      19
