          18
Lattice="  24.8920   0.0000   0.0000   0.0000  24.8920   0.0000   0.0000   0.0000  24.8920 " ConfE="      -5941.1877" DelE="          0.0000"
Co    -3.42277692    0.02391104    0.00541480       1
Cr     0.04559844   -3.55526438    0.05865524       2
Ni     0.04214507    0.02770233    3.60423963       3
Cr     0.10829547    3.56693705   -0.01150568       4
Co     3.60393569    0.01436690    0.02452878       5
Cr     0.12975637    0.04086218   -3.57118538       6
Ni    -1.72807552    0.04243947    1.81380848       7
Ni     0.00364240   -1.75572932    1.79264543       8
Cr    -1.73066804   -0.05685873   -1.62629626       9
Cr     0.02488869   -1.75360614   -1.68390459      10
Ni    -1.69492012    1.85144447    0.04460509      11
Co     0.04956877    1.81467780    1.79260412      12
Cr     1.76254242    0.04666117    1.77506513      13
Cr     1.83713394   -1.80353390    0.03892974      14
Cr     1.78181010    1.78948151    0.00590611      15
Cr     0.06868681    1.77823148   -1.80083652      16
Co     1.82746050   -0.00235860   -1.71000870      17
Co     0.00000000    0.00000000    0.00000000      18
          18
Lattice="  24.8920   0.0000   0.0000   0.0000  24.8920   0.0000   0.0000   0.0000  24.8920 " ConfE="      -5940.5305" DelE="          0.6572"
Co    -3.37216275    0.00637909    0.01547258       1
Cr     0.02472673   -3.51206911    0.06745160       2
Ni     0.05591021    0.03125022    3.66550041       3
Cr     0.11770275    3.58100714   -0.00285659       4
Co     3.59457831    0.01352997    0.01473716       5
Cr     0.13797026    0.07146346   -3.65590027       6
Ni    -1.71459878    0.06983698    1.91896225       7
Ni     0.03621331   -1.79911020    1.95398379       8
Cr    -1.68980051    0.05902097   -1.84822114       9
Cr     0.12578724   -1.79618936   -1.90586090      10
Ni    -1.62549444    1.77302216    0.03623422      11
Co     0.06621421    1.78089389    1.78900161      12
Cr     1.66087304    0.03153842    1.71655492      13
Cr     1.73930177   -1.74464358    0.03664216      14
Cr     1.68767082    1.70685709    0.00559653      15
Cr     0.06123598    1.75498218   -1.80898312      16
Co     1.77653575    0.00272007   -1.70033440      17
Co    -0.81974995   -0.93574372   -0.06928813      18
          18
Lattice="  24.8920   0.0000   0.0000   0.0000  24.8920   0.0000   0.0000   0.0000  24.8920 " ConfE="      -5941.1275" DelE="          0.0602"
Co    -3.44674991    0.03429956    0.01255514       1
Cr     0.11755479   -3.61223802    0.06715513       2
Ni     0.04767891    0.03324388    3.63259302       3
Cr     0.12697212    3.59426291   -0.00572799       4
Co     3.61229025    0.02287633    0.02453452       5
Cr     0.15541051    0.05400444   -3.63560024       6
Ni    -1.69445218    0.04523277    1.80332088       7
Ni     0.03981424   -1.74236367    1.81498013       8
Cr    -1.66024593    0.00563349   -1.65044464       9
Cr     0.06539098   -1.66390054   -1.70395968      10
Ni    -1.63795774    1.80340837    0.03980627      11
Co     0.08172387    1.78142406    1.76961309      12
Cr     1.71940786    0.05584389    1.73845285      13
Cr     1.78568316   -1.76397832    0.04521906      14
Cr     1.73446344    1.76213422    0.02042324      15
Cr     0.07725430    1.73652223   -1.78827220      16
Co     1.78105670    0.01147042   -1.66415951      17
Co    -1.60993416   -1.76032651   -0.02885368      18
