          18
Lattice="  24.8920   0.0000   0.0000   0.0000  24.8920   0.0000   0.0000   0.0000  24.8920 " ConfE="      -5944.8063" DelE="          0.0000"
Ni    -0.05883682   -3.45400451   -0.01483569       1
Ni    -0.00456046    0.00771724   -3.57934420       2
Co    -3.53737447    0.04031051   -0.03126857       3
Co     0.04941513    0.03005957    3.52574493       4
Co     3.51518292    0.03854704   -0.02741930       5
Cr     0.02938687    3.60582237   -0.05056856       6
Ni    -1.76612935    0.01117617    1.72989126       7
Ni    -0.01271870   -1.74234263   -1.77279547       8
Cr    -0.01619701   -1.66617275    1.76272717       9
Ni     1.78560817   -1.76459089   -0.03579603      10
Co    -1.73272479    0.00246754   -1.71892006      11
Co     0.00316748    1.78907860    1.73636960      12
Cr     1.78222380    0.03287107    1.74282369      13
Cr     1.76276653    1.81345686   -0.01453939      14
Co    -1.73054387    1.84016360   -0.01778256      15
Cr     1.78509887    0.05112500   -1.84210287      16
Cr    -0.09608319    1.79215530   -1.78540769      17
Cr     0.00000000    0.00000000    0.00000000      18
          18
Lattice="  24.8920   0.0000   0.0000   0.0000  24.8920   0.0000   0.0000   0.0000  24.8920 " ConfE="      -5944.2844" DelE="          0.5219"
Ni    -0.05580946   -3.46632034   -0.02883463       1
Ni     0.00629277    0.01022639   -3.61751837       2
Co    -3.51295064    0.02922437   -0.01907431       3
Co     0.06432164    0.06331578    3.60245285       4
Co     3.52102821    0.03323620   -0.02540967       5
Cr     0.00232446    3.60603434   -0.05460284       6
Ni    -1.77358860    0.08359905    1.87069287       7
Ni     0.04724487   -1.78393680   -1.89925764       8
Cr     0.02671075   -1.68366181    1.85146178       9
Ni     1.70900456   -1.75064330   -0.04434356      10
Co    -1.76650969    0.03402913   -1.85734676      11
Co     0.01084344    1.74594427    1.69596044      12
Cr     1.63558388    0.05554837    1.57561913      13
Cr     1.71620861    1.82064780   -0.01995916      14
Co    -1.70639967    1.74349972   -0.02345343      15
Cr     1.64331383    0.06389706   -1.68275732      16
Cr    -0.12716286    1.72243412   -1.71980972      17
Cr    -1.05499977   -1.01358133   -0.02247340      18
          18
Lattice="  24.8920   0.0000   0.0000   0.0000  24.8920   0.0000   0.0000   0.0000  24.8920 " ConfE="      -5945.0029" DelE="         -0.1966"
Ni    -0.01715919   -3.50071890   -0.02083179       1
Ni     0.00553495    0.01406874   -3.60293398       2
Co    -3.58280598    0.05624318   -0.02586546       3
Co     0.05312139    0.04189536    3.55505187       4
Co     3.55075743    0.04850302   -0.03211910       5
Cr     0.01837060    3.61131468   -0.05637128       6
Ni    -1.74818259    0.03781394    1.72748259       7
Ni     0.02440784   -1.71831646   -1.78173773       8
Cr    -0.00762145   -1.61001134    1.71475822       9
Ni     1.74111629   -1.71518696   -0.03795165      10
Co    -1.71011747    0.02169428   -1.72712253      11
Co     0.02165634    1.75233513    1.68719704      12
Cr     1.73420740    0.04658989    1.67030537      13
Cr     1.68748542    1.77270611   -0.02633866      14
Co    -1.71584920    1.78993062   -0.04118524      15
Cr     1.76170632    0.08220828   -1.80025046      16
Cr    -0.09974880    1.76497587   -1.74534337      17
Cr    -1.76383131   -1.66259689   -0.09053443      18
