          18
Lattice="  24.8920   0.0000   0.0000   0.0000  24.8920   0.0000   0.0000   0.0000  24.8920 " ConfE="      -5924.2739" DelE="          0.0000"
Ni     0.02319933   -0.02165600    3.45104928       1
Ni     3.57323851   -0.05150666   -0.05825348       2
Co     0.00199956    3.50470852   -0.04805148       3
Co    -3.55001078   -0.01202152   -0.02378630       4
Co     0.01401658   -3.57378852   -0.04019231       5
Co     0.00311967   -0.02278526   -3.68263215       6
Ni     1.78416372   -0.02054846    1.70811775       7
Ni     1.74547921    1.75527695   -0.05184091       8
Cr    -1.64080505    0.14348474    1.62425018       9
Ni    -1.77336980   -1.76960479   -0.07994893      10
Ni     0.00006111   -1.77364908   -1.83459956      11
Co    -1.73737518    1.76543561   -0.02750476      12
Ni     1.75834297   -0.01111201   -1.84618571      13
Cr     0.00207914   -1.83338706    1.65990284      14
Co    -1.75347227    0.01257934   -1.81757305      15
Co    -0.01173164    1.74222434   -1.88255526      16
Co     1.84025338   -1.81981440   -0.06336795      17
Co     0.00000000    0.00000000    0.00000000      18
          18
Lattice="  24.8920   0.0000   0.0000   0.0000  24.8920   0.0000   0.0000   0.0000  24.8920 " ConfE="      -5923.7516" DelE="          0.5223"
Ni     0.03025410   -0.02375626    3.40748331       1
Ni     3.63501139   -0.07023442   -0.07384661       2
Co     0.01927620    3.42933768   -0.02716063       3
Co    -3.59677563   -0.02015599   -0.04046937       4
Co     0.01346647   -3.57472273   -0.03854384       5
Co     0.00243312   -0.01837910   -3.67487913       6
Ni     1.93854849   -0.05640485    1.73183592       7
Ni     1.88985649    1.75712761   -0.10511000       8
Cr    -1.87110591    0.01166086    1.68413121       9
Ni    -1.75070964   -1.72580228   -0.07578252      10
Ni     0.00789939   -1.73187856   -1.79239353      11
Co    -1.91198157    1.81622149   -0.10105051      12
Ni     1.76575454   -0.01100832   -1.82395878      13
Cr     0.04405146   -1.75828561    1.59957028      14
Co    -1.75518140    0.02368133   -1.79786181      15
Co    -0.01662019    1.69788097   -1.80904111      16
Co     1.83823277   -1.80286608   -0.05613967      17
Co    -0.05167041    0.74304528    0.73151353      18
          18
Lattice="  24.8920   0.0000   0.0000   0.0000  24.8920   0.0000   0.0000   0.0000  24.8920 " ConfE="      -5924.7003" DelE="         -0.4265"
Ni     0.02877925   -0.05930367    3.49628222       1
Ni     3.59319315   -0.05916102   -0.06296898       2
Co    -0.00316592    3.53429095   -0.07644242       3
Co    -3.56599186   -0.01780324   -0.03210621       4
Co     0.01562672   -3.59400934   -0.04327053       5
Co     0.00741294   -0.02088773   -3.69186269       6
Ni     1.76769878   -0.04772846    1.67326324       7
Ni     1.74235223    1.73089274   -0.08161850       8
Cr    -1.65672493    0.02694142    1.59605106       9
Ni    -1.73741348   -1.74869961   -0.09150138      10
Ni     0.01116528   -1.75222293   -1.81293361      11
Co    -1.74471543    1.73219416   -0.04359648      12
Ni     1.74280286   -0.01365252   -1.83119515      13
Cr     0.01792245   -1.78517835    1.62875677      14
Co    -1.73125076    0.01717370   -1.80474654      15
Co    -0.02005576    1.72852787   -1.85250045      16
Co     1.84788262   -1.82666883   -0.07312540      17
Co    -0.01309414    1.70480037    1.69084421      18
