          18
Lattice="  24.8920   0.0000   0.0000   0.0000  24.8920   0.0000   0.0000   0.0000  24.8920 " ConfE="      -5948.5260" DelE="          0.0000"
Ni     0.06933461    0.06021060   -3.54197887       1
Cr    -3.40468512    0.05000140   -0.02448166       2
Co     0.08368758    0.01454674    3.53933049       3
Co     3.69952540    0.04206293   -0.03379754       4
Cr     0.13732131   -3.47318868   -0.06346308       5
Cr     0.01327418    3.53921176   -0.00408626       6
Ni     0.06512497   -1.69927938   -1.78194135       7
Ni     0.04053771    1.79687964   -1.78260317       8
Cr    -1.69015352   -1.64794973   -0.07486257       9
Co    -1.71748537    1.72027592   -0.04255306      10
Co     1.88130958    0.04479316   -1.76787096      11
Cr    -1.77574801    0.04130928    1.82238660      12
Cr     1.89572651    0.00798311    1.77776332      13
Cr     1.89666178   -1.67433730    0.02674356      14
Ni     1.83426771    1.76631361    0.00843137      15
Ni     0.07165962   -1.74842679    1.78056516      16
Ni     0.06074698    1.76709907    1.78771281      17
Co     0.00000000    0.00000000    0.00000000      18
          18
Lattice="  24.8920   0.0000   0.0000   0.0000  24.8920   0.0000   0.0000   0.0000  24.8920 " ConfE="      -5947.8751" DelE="          0.6509"
Ni     0.06835417    0.06308093   -3.50398272       1
Cr    -3.39882911    0.04728778   -0.02966655       2
Co     0.08092122    0.01871888    3.51042131       3
Co     3.69938969    0.04184535   -0.04646866       4
Cr     0.13869117   -3.55048045   -0.05213789       5
Cr     0.05896220    3.64896755   -0.00689500       6
Ni     0.12805631   -1.84156290   -1.80366519       7
Ni     0.08889285    1.91482881   -1.78347431       8
Cr    -1.70766296   -1.85386540   -0.01758050       9
Co    -1.74983402    1.99745146    0.00423753      10
Co     1.79069473    0.02259957   -1.69673351      11
Cr    -1.73928050    0.05199359    1.70469660      12
Cr     1.86475188    0.00480322    1.72877149      13
Cr     1.85225946   -1.65382435    0.00226319      14
Ni     1.81575984    1.76871118    0.00131999      15
Ni     0.06600816   -1.72380062    1.71040067      16
Ni     0.04632876    1.75396774    1.71761527      17
Co    -0.95597590   -0.00001831   -0.85008355      18
          18
Lattice="  24.8920   0.0000   0.0000   0.0000  24.8920   0.0000   0.0000   0.0000  24.8920 " ConfE="      -5948.6547" DelE="         -0.1287"
Ni     0.09675356    0.05380614   -3.56329886       1
Cr    -3.50281003    0.03669177    0.00931148       2
Co     0.08845619    0.01135572    3.54518719       3
Co     3.71885634    0.04635066   -0.03665124       4
Cr     0.15067243   -3.50823886   -0.05420011       5
Cr     0.02499368    3.57694983   -0.00102061       6
Ni     0.09651570   -1.69472780   -1.72217842       7
Ni     0.07635159    1.80900703   -1.75802622       8
Cr    -1.69285702   -1.65371246   -0.02334111       9
Co    -1.67672095    1.72879517    0.01677199      10
Co     1.86590715    0.04185949   -1.74155753      11
Cr    -1.76561457    0.04460230    1.75446105      12
Cr     1.91327521    0.00865573    1.77359012      13
Cr     1.91081130   -1.64077754    0.03211018      14
Ni     1.82920599    1.74882981    0.01406439      15
Ni     0.08289635   -1.69596747    1.71809380      16
Ni     0.07548893    1.73232324    1.76380391      17
Co    -1.68304250    0.02908680   -1.69853793      18
