          19
Lattice="  24.8920   0.0000   0.0000   0.0000  24.8920   0.0000   0.0000   0.0000  24.8920 " ConfE="      -5923.7747" DelE="          0.0000"
Cr    -1.46052973   -3.26375004    1.74177632       1
Ni     0.00956892    0.02580682    3.50549708       2
Co     0.02447146   -3.43973584   -0.04143391       3
Co    -0.02638060    3.57293570   -0.06168913       4
Co     0.03387191    0.04363753   -3.62606099       5
Ni     3.55006532    0.03626964   -0.04143365       6
Ni    -3.53527155    0.02903208   -0.05119415       7
Co     1.74159429    0.03070281    1.72872576       8
Cr    -1.62461572   -0.13925562    1.68908339       9
Co     1.77072762   -1.73855539   -0.03673891      10
Ni    -0.00655991    1.81902430    1.72537732      11
Cr     1.73764486   -0.01778605   -1.74705802      12
Co     0.03462342   -1.70071968   -1.84811049      13
Cr     0.02093617    1.76773726   -1.75920098      14
Co    -1.71668336    0.02005249   -1.82850080      15
Cr    -1.72482526    1.71871290   -0.04787677      16
Ni     1.77426054    1.80759186   -0.02654207      17
Co    -1.74862139   -1.72870251   -0.04241462      18
Co     0.00000000    0.00000000    0.00000000      19
          19
Lattice="  24.8920   0.0000   0.0000   0.0000  24.8920   0.0000   0.0000   0.0000  24.8920 " ConfE="      -5923.1967" DelE="          0.5781"
Cr    -1.40883076   -3.15659301    1.70872805       1
Ni     0.00695233    0.01768642    3.48934531       2
Co     0.04132758   -3.40974459   -0.05786519       3
Co    -0.02398413    3.56569507   -0.05210456       4
Co     0.03041641    0.02706502   -3.62259078       5
Ni     3.59850580    0.03846789   -0.04384469       6
Ni    -3.58728733    0.03294621   -0.05272730       7
Co     1.85595698    0.07711319    1.76055193       8
Cr    -1.78447487   -0.07886860    1.73331220       9
Co     1.94724631   -1.78957369   -0.09454006      10
Ni    -0.02045401    1.74317928    1.68639405      11
Cr     1.69956077   -0.04030469   -1.68086605      12
Co     0.04823427   -1.67030758   -1.78747213      13
Cr     0.00953153    1.69969671   -1.69901035      14
Co    -1.68389282    0.03306909   -1.76430395      15
Cr    -1.71287851    1.64822591   -0.03370355      16
Ni     1.76049911    1.76290061   -0.02562930      17
Co    -1.93270746   -1.80887645   -0.16505052      18
Co    -0.01103185   -0.85471056    0.70500381      19
          19
Lattice="  24.8920   0.0000   0.0000   0.0000  24.8920   0.0000   0.0000   0.0000  24.8920 " ConfE="      -5923.7118" DelE="          0.0629"
Cr    -1.63688885   -3.43153101    1.72194958       1
Ni     0.01559066    0.05786135    3.54133473       2
Co     0.01175768   -3.47366805   -0.06403355       3
Co    -0.02259450    3.58445356   -0.06066406       4
Co     0.03118108    0.03904558   -3.63999462       5
Ni     3.57306859    0.03726066   -0.04870631       6
Ni    -3.56522687    0.04051022   -0.05806354       7
Co     1.75185835    0.05551688    1.70929168       8
Cr    -1.66860110   -0.07227483    1.65564238       9
Co     1.76412661   -1.69492263   -0.07342255      10
Ni    -0.02494328    1.75413485    1.67605181      11
Cr     1.71317386   -0.02163325   -1.73375346      12
Co     0.04329510   -1.66185081   -1.80801639      13
Cr     0.01630076    1.74126887   -1.73826580      14
Co    -1.65834453    0.06441598   -1.76379280      15
Cr    -1.70775970    1.69902716   -0.06242722      16
Ni     1.74469747    1.76892067   -0.04873437      17
Co    -1.73479171   -1.68331181   -0.05347402      18
Co     0.00987003   -1.68120628    1.71360552      19
