          18
Lattice="  24.8920   0.0000   0.0000   0.0000  24.8920   0.0000   0.0000   0.0000  24.8920 " ConfE="      -5938.4936" DelE="          0.0000"
Cr     0.00424390    0.08176261   -3.37790840       1
Cr    -3.47308436    0.10410850    0.04164692       2
Ni     0.02976220   -3.50111401    0.08865848       3
Cr     0.03537620    3.67008737    0.12825090       4
Cr     0.03943096    0.13860166    3.61005328       5
Cr     3.60251557    0.08193962    0.11447553       6
Ni     0.02536334    1.88280649   -1.67790792       7
Co    -1.73839478   -1.66168110    0.05359840       8
Co     0.04052487   -1.70867593   -1.71323244       9
Cr    -1.74821491    1.77821323    0.04802172      10
Ni    -1.77404070    0.05123015    1.88589526      11
Cr     1.85249912    0.10425277   -1.66406772      12
Co     0.05121203   -1.69086487    1.88710712      13
Co     1.83967470   -1.73871987    0.06691600      14
Co     1.80924126    1.88135329    0.10506493      15
Cr    -0.00449027    1.79821746    1.78891082      16
Co     1.82532082    0.09694219    1.84194853      17
Cr     0.00000000    0.00000000    0.00000000      18
          18
Lattice="  24.8920   0.0000   0.0000   0.0000  24.8920   0.0000   0.0000   0.0000  24.8920 " ConfE="      -5937.8554" DelE="          0.6382"
Cr     0.05559634    0.10420690   -3.41735619       1
Cr    -3.51758489    0.09795721    0.07105488       2
Ni     0.04576704   -3.56399378    0.10245748       3
Cr     0.05713461    3.72829678    0.16533692       4
Cr     0.02984582    0.14722638    3.56140224       5
Cr     3.56916259    0.08640884    0.11641833       6
Ni     0.09255652    2.00879859   -1.70065186       7
Co    -1.75089240   -1.83605283    0.11648492       8
Co     0.09541247   -1.81943856   -1.70124760       9
Cr    -1.78519313    1.97033762    0.09991072      10
Ni    -1.73605715    0.04335695    1.77052991      11
Cr     1.78211396    0.10439313   -1.60293022      12
Co     0.04596628   -1.68563804    1.85868665      13
Co     1.78415736   -1.70266936    0.07044670      14
Co     1.77104995    1.87719922    0.10523864      15
Cr    -0.00928900    1.73410358    1.68061618      16
Co     1.79299109    0.10609326    1.81905514      17
Cr    -0.99504899    0.04667535   -0.90025367      18
          18
Lattice="  24.8920   0.0000   0.0000   0.0000  24.8920   0.0000   0.0000   0.0000  24.8920 " ConfE="      -5938.2787" DelE="          0.2149"
Cr     0.08402586    0.10437190   -3.48505868       1
Cr    -3.52470371    0.11193986    0.09218908       2
Ni     0.03892040   -3.52933701    0.10218768       3
Cr     0.03882082    3.68113568    0.15060987       4
Cr     0.04666337    0.13963861    3.61666867       5
Cr     3.58350862    0.08606255    0.11278581       6
Ni     0.06982002    1.91114637   -1.67310788       7
Co    -1.70526870   -1.67640518    0.08637347       8
Co     0.07517645   -1.70890150   -1.67669552       9
Cr    -1.68817317    1.80320432    0.09237974      10
Ni    -1.71913041    0.05339235    1.83612770      11
Cr     1.73425955    0.08222009   -1.58242932      12
Co     0.06199636   -1.68479450    1.90065602      13
Co     1.81129461   -1.71031860    0.08909070      14
Co     1.78810406    1.87578718    0.11907934      15
Cr     0.03153420    1.77958432    1.78588825      16
Co     1.79915322    0.10399944    1.82962396      17
Cr    -1.58548241    0.05567920   -1.62147463      18
