          18
Lattice="  24.8920   0.0000   0.0000   0.0000  24.8920   0.0000   0.0000   0.0000  24.8920 " ConfE="      -5943.0851" DelE="          0.0000"
Ni    -0.01141577    3.50805384    0.01616329       1
Ni    -3.48222873    0.01120645   -0.01008886       2
Ni     0.03850424    0.00931069    3.55318796       3
Cr     0.05304030   -0.00197444   -3.51772295       4
Co     0.01569610   -3.53285106    0.03136844       5
Co     3.59903336    0.03286396   -0.05189185       6
Ni    -0.00131312    1.74701947    1.76213500       7
Ni    -1.72652445    0.00782881   -1.75558086       8
Co    -1.81351145    0.03968663    1.73361269       9
Ni     0.00334379   -1.75699707    1.76011843      10
Co     0.03437886    1.78907133   -1.77378436      11
Cr     1.86936315   -0.00737693    1.70554049      12
Cr     1.80158564    1.79405507   -0.03074448      13
Cr    -1.77350457   -1.87329387   -0.00631953      14
Co     0.03700066   -1.77738536   -1.76667585      15
Cr     1.83639443   -1.80262750    0.00894409      16
Co     1.82644577    0.00504437   -1.77058903      17
Ni     0.00000000    0.00000000    0.00000000      18
          18
Lattice="  24.8920   0.0000   0.0000   0.0000  24.8920   0.0000   0.0000   0.0000  24.8920 " ConfE="      -5942.1579" DelE="          0.9272"
Ni    -0.00543072    3.47048648    0.02404498       1
Ni    -3.43221736    0.00138276   -0.01438938       2
Ni     0.04231504   -0.00380323    3.62403823       3
Cr     0.06970286   -0.02783805   -3.61141508       4
Co     0.01333577   -3.53403723    0.04234078       5
Co     3.61043540    0.04271239   -0.05924566       6
Ni     0.04686955    1.76389980    1.91437428       7
Ni    -1.73537611   -0.05483644   -1.92240641       8
Co    -1.82610510   -0.05303255    1.89368399       9
Ni     0.00169874   -1.70236464    1.74511804      10
Co     0.08737115    1.81045934   -1.92025019      11
Cr     1.80301432    0.01424582    1.69365359      12
Cr     1.65072809    1.65279194   -0.05810075      13
Cr    -1.66422718   -1.75302605   -0.03419385      14
Co     0.03556362   -1.73007324   -1.71572184      15
Cr     1.73208666   -1.66898271   -0.02283738      16
Co     1.78688613    0.01913841   -1.75841948      17
Ni    -1.09705880    1.08232653    0.00249954      18
          18
Lattice="  24.8920   0.0000   0.0000   0.0000  24.8920   0.0000   0.0000   0.0000  24.8920 " ConfE="      -5942.7665" DelE="          0.3186"
Ni     0.02850868    3.54842820    0.02065433       1
Ni    -3.52092349   -0.01952998   -0.00862435       2
Ni     0.03801750    0.00769136    3.57073394       3
Cr     0.05385863   -0.01458371   -3.55462646       4
Co     0.01789215   -3.55262426    0.03694548       5
Co     3.63420003    0.03347277   -0.05714315       6
Ni     0.02245215    1.71825679    1.75699244       7
Ni    -1.68269029   -0.00826397   -1.73441146       8
Co    -1.78498862   -0.02212957    1.73608756       9
Ni     0.01418117   -1.71447691    1.71444266      10
Co     0.06348648    1.77391238   -1.76622776      11
Cr     1.84560954   -0.00602486    1.67546461      12
Cr     1.72739890    1.70521503   -0.05923027      13
Cr    -1.72498514   -1.82326813   -0.02521987      14
Co     0.04662872   -1.75184602   -1.71636073      15
Cr     1.77319393   -1.71137404   -0.02252760      16
Co     1.80329352    0.00433661   -1.73440322      17
Ni    -1.73094661    1.75185863    0.01415060      18
