          18
Lattice="  24.8920   0.0000   0.0000   0.0000  24.8920   0.0000   0.0000   0.0000  24.8920 " ConfE="      -5934.5982" DelE="          0.0000"
Ni     0.04721603   -0.00406431   -3.44716072       1
Ni     0.03066185   -3.58613219    0.06278374       2
Co    -3.52410071   -0.03872444    0.07171564       3
Co     0.04969007    3.53571809    0.03466218       4
Co     0.05774053   -0.00026458    3.61332172       5
Co     3.57687401   -0.04257164    0.08457525       6
Ni    -1.71626235    1.76466365    0.02655089       7
Ni    -1.73132206   -1.75485073    0.00676190       8
Co     0.07753108    1.78939475   -1.69781025       9
Co     0.09357084   -1.82278453   -1.72634742      10
Ni     0.01874299   -1.76257583    1.82882900      11
Cr     1.83641995    0.00717013   -1.69104519      12
Cr     0.06390078    1.77139729    1.80633300      13
Cr     1.80635985    1.80377807    0.06849784      14
Co     1.81237986    0.00715810    1.82489128      15
Co    -1.74515670    0.01868707    1.85724801      16
Cr     1.79470815   -1.80302477    0.09299484      17
Ni     0.00000000    0.00000000    0.00000000      18
          18
Lattice="  24.8920   0.0000   0.0000   0.0000  24.8920   0.0000   0.0000   0.0000  24.8920 " ConfE="      -5933.1394" DelE="          1.4587"
Ni     0.05015549    0.00055131   -3.42981981       1
Ni     0.04373980   -3.62665202    0.09875477       2
Co    -3.51584147   -0.03930425    0.04890036       3
Co     0.07775362    3.48763403    0.11289186       4
Co     0.04341442    0.02869370    3.56815373       5
Co     3.61015809   -0.02420181    0.07813257       6
Ni    -1.80546938    1.88030999    0.05164818       7
Ni    -1.75825180   -1.88035046    0.10081409       8
Co     0.10266514    1.95881313   -1.71279689       9
Co     0.16110949   -1.99559549   -1.74343222      10
Ni     0.00201119   -1.72146320    1.81903010      11
Cr     1.65487291    0.07690075   -1.53672366      12
Cr     0.08786848    0.97515650    1.10983669      13
Cr     1.89231245    1.86278945    0.08530725      14
Co     1.95075250   -0.03741749    1.88839054      15
Co    -1.82110411   -0.01822735    1.82755005      16
Cr     1.64537576   -1.60847875    0.10603574      17
Ni    -0.94315076   -0.02892934   -1.06303721      18
          18
Lattice="  24.8920   0.0000   0.0000   0.0000  24.8920   0.0000   0.0000   0.0000  24.8920 " ConfE="      -5934.2326" DelE="          0.3656"
Ni     0.07451374   -0.01132779   -3.48346137       1
Ni     0.04066874   -3.58963391    0.07012818       2
Co    -3.52337276   -0.03580935    0.09497996       3
Co     0.07394191    3.49255569    0.04870795       4
Co     0.03850207    0.03770109    3.58034921       5
Co     3.55958425   -0.02559408    0.09295098       6
Ni    -1.66110364    1.76711389    0.09364014       7
Ni    -1.71818353   -1.76787178    0.05747280       8
Co     0.09319811    1.76937267   -1.71407983       9
Co     0.10368305   -1.80287130   -1.69503831      10
Ni     0.02660611   -1.79281637    1.85221372      11
Cr     1.80248084    0.02742808   -1.65816851      12
Cr     0.09750001    0.02492474    0.13321806      13
Cr     1.75186298    1.84496832    0.15576252      14
Co     1.78047096    0.04097853    1.82497605      15
Co    -1.71628634    0.03413430    1.84432676      16
Cr     1.81458307   -1.81000505    0.11991406      17
Ni    -1.68926541    0.00235691   -1.69976282      18
