          18
Lattice="  24.8920   0.0000   0.0000   0.0000  24.8920   0.0000   0.0000   0.0000  24.8920 " ConfE="      -5950.5253" DelE="          0.0000"
Co    -3.41012312    0.02912108    0.05035320       1
Ni     0.06199868    3.48102655    0.01041363       2
Ni     3.62844768   -0.02623641    0.02591788       3
Ni     0.08781036   -3.59530742    0.03307785       4
Cr     0.11295105   -0.00192058   -3.49849131       5
Co     0.04279301   -0.00976451    3.58224457       6
Co    -1.71260724    0.02546876   -1.68975779       7
Cr    -1.74984732   -0.01660066    1.77092498       8
Cr     0.04266803    1.73852535   -1.73063257       9
Ni     0.02565790    1.73653035    1.76503737      10
Cr    -1.71382911   -1.84280252    0.06735837      11
Ni     1.87578018    1.75110626    0.02921706      12
Co     1.81676893   -1.78011610    0.04189198      13
Ni     0.08121099   -1.79238782   -1.72787588      14
Co     0.03324865   -1.77185884    1.79079507      15
Co     1.84127994   -0.00024519   -1.75487129      16
Ni     1.81343064   -0.02743973    1.80451823      17
Cr     0.00000000    0.00000000    0.00000000      18
          18
Lattice="  24.8920   0.0000   0.0000   0.0000  24.8920   0.0000   0.0000   0.0000  24.8920 " ConfE="      -5949.9097" DelE="          0.6157"
Co    -3.35657424    0.00679851    0.03694670       1
Ni     0.04894378    3.40440504    0.01314674       2
Ni     3.64417374   -0.01368605    0.02745892       3
Ni     0.08762286   -3.59558784    0.04102356       4
Cr     0.13777731   -0.06989282   -3.58470267       5
Co     0.06736932   -0.01802211    3.64638332       6
Co    -1.78310580   -0.08098549   -1.88685469       7
Cr    -1.76723731   -0.05851182    1.96400253       8
Cr     0.12563167    1.73156067   -1.86807054       9
Ni     0.08066828    1.76024287    1.91472231      10
Cr    -1.69485451   -1.81309499    0.08840746      11
Ni     1.83139939    1.71188747    0.04325541      12
Co     1.79235335   -1.73231068    0.05415949      13
Ni     0.05056460   -1.71784131   -1.66028355      14
Co    -0.00804827   -1.66398711    1.71985301      15
Co     1.79997882    0.02666195   -1.75022877      16
Ni     1.81230136   -0.01190974    1.81839015      17
Cr    -0.67395946    0.63468094   -0.01777345      18
          18
Lattice="  24.8920   0.0000   0.0000   0.0000  24.8920   0.0000   0.0000   0.0000  24.8920 " ConfE="      -5950.6497" DelE="         -0.1244"
Co    -3.49743282   -0.01740004    0.04668223       1
Ni     0.10178269    3.50999843    0.01139983       2
Ni     3.64520279   -0.02673892    0.02804068       3
Ni     0.09094854   -3.60290125    0.03493083       4
Cr     0.12827445   -0.02199035   -3.53064530       5
Co     0.05940038   -0.01733504    3.61793901       6
Co    -1.69205729   -0.01707242   -1.69504701       7
Cr    -1.68461427   -0.06075321    1.79193882       8
Cr     0.13187448    1.67591566   -1.73068323       9
Ni     0.07339383    1.70358144    1.76939304      10
Cr    -1.65194704   -1.75635875    0.07821712      11
Ni     1.85574307    1.72490063    0.03241409      12
Co     1.82125711   -1.77086016    0.05133326      13
Ni     0.09198562   -1.75519050   -1.68562196      14
Co     0.02199325   -1.74297543    1.75730353      15
Co     1.83066499    0.01357378   -1.75711214      16
Ni     1.81498766   -0.04166319    1.80700825      17
Cr    -1.65483421    1.64868789   -0.01489879      18
