          18
Lattice="  24.8920   0.0000   0.0000   0.0000  24.8920   0.0000   0.0000   0.0000  24.8920 " ConfE="      -5922.9191" DelE="          0.0000"
Co     0.03209804   -3.47125565    0.02815769       1
Co     3.58516597   -0.00547734    0.00670094       2
Cr    -0.03411260    3.54304095   -0.02593564       3
Cr    -3.63143363    0.02628675   -0.04253925       4
Ni    -0.01495922   -0.00659349   -3.54587270       5
Cr    -0.05020042    0.04818969    3.51793969       6
Co     0.05169951   -1.75512616   -1.72540099       7
Cr     0.10157101   -1.74353207    1.60137215       8
Co     1.79769354    0.00494922   -1.75979606       9
Ni     1.79807127    0.01894125    1.73234190      10
Cr    -1.80628001   -1.72659624   -0.01545755      11
Ni     1.76974110    1.81680481    0.00120818      12
Cr    -1.80460221    1.76195559   -0.01469040      13
Cr    -1.77116274    0.01442947   -1.77552150      14
Co    -1.78410720    0.00469833    1.74581557      15
Co    -0.00113286    1.78432112   -1.79147569      16
Co    -0.04699034    1.78182825    1.77112882      17
Co     0.00000000    0.00000000    0.00000000      18
          18
Lattice="  24.8920   0.0000   0.0000   0.0000  24.8920   0.0000   0.0000   0.0000  24.8920 " ConfE="      -5922.1965" DelE="          0.7226"
Co     0.03192304   -3.41638502    0.02074558       1
Co     3.52193787   -0.02704282    0.02202355       2
Cr    -0.03036970    3.53885017   -0.02592754       3
Cr    -3.64303005    0.01499073   -0.06266649       4
Ni    -0.01992012    0.00036632   -3.61672110       5
Cr    -0.06102691    0.07536314    3.58796788       6
Co     0.00473299   -1.81856901   -1.94260117       7
Cr     0.01897655   -1.76981746    1.89574792       8
Co     1.80797598    0.05120993   -1.88768449       9
Ni     1.81218568    0.06628406    1.88977355      10
Cr    -1.73719345   -1.67228530   -0.02914887      11
Ni     1.73178441    1.74760889    0.01236309      12
Cr    -1.72507042    1.64554957   -0.00800803      13
Cr    -1.66608917   -0.01271802   -1.75383862      14
Co    -1.74544055   -0.00501876    1.71890443      15
Co     0.00162760    1.75500258   -1.79092232      16
Co    -0.04644973    1.75394146    1.76505200      17
Co     0.73398012   -0.84731263    0.00534565      18
          18
Lattice="  24.8920   0.0000   0.0000   0.0000  24.8920   0.0000   0.0000   0.0000  24.8920 " ConfE="      -5922.9699" DelE="         -0.0508"
Co    -0.01137351   -3.51631911    0.02168639       1
Co     3.60314766    0.00604872    0.00538490       2
Cr    -0.03792129    3.56572114   -0.03154009       3
Cr    -3.66832069    0.03092166   -0.06894944       4
Ni    -0.01977493    0.00077254   -3.57705327       5
Cr    -0.05855324    0.06243795    3.55644874       6
Co     0.00308629   -1.71527481   -1.73117201       7
Cr    -0.00158258   -1.69121862    1.69234138       8
Co     1.77531264    0.03714288   -1.78108287       9
Ni     1.76617003    0.04384310    1.76179026      10
Cr    -1.73839200   -1.68191603   -0.01820312      11
Ni     1.73412058    1.77306846    0.00027963      12
Cr    -1.77407400    1.71803079   -0.01369650      13
Cr    -1.73156958    0.02214162   -1.74684735      14
Co    -1.76452240    0.01853652    1.69679119      15
Co    -0.01705800    1.75988320   -1.76685454      16
Co    -0.06138018    1.76444472    1.73803856      17
Co     1.69974680   -1.70562313    0.01895879      18
