          18
Lattice="  24.8920   0.0000   0.0000   0.0000  24.8920   0.0000   0.0000   0.0000  24.8920 " ConfE="      -5949.8379" DelE="          0.0000"
Ni    -0.02613651    0.03771323   -3.52419736       1
Cr     3.51176187    0.02812587    0.11822295       2
Co     0.01193659    0.02007669    3.56668623       3
Co    -3.61487080   -0.02232433    0.04402498       4
Co    -0.02616233    3.58284710    0.06824615       5
Cr    -0.03231229   -3.45532378    0.03646883       6
Ni    -0.00440087    1.74845902    1.79962720       7
Ni     1.76647243   -1.70405209    0.04375786       8
Ni     0.01730560   -1.71124889    1.80631934       9
Co     1.77515112    1.73827397    0.09294856      10
Ni    -1.79750513    1.75660331    0.05225243      11
Co     1.80974858    0.03133834   -1.76261408      12
Co    -0.02748058    1.78138593   -1.71541044      13
Co    -1.83405799    0.03608873   -1.76344309      14
Cr    -0.07931672   -1.62969325   -1.67547143      15
Co    -1.82574235   -0.04043748    1.82107775      16
Co    -1.79606821   -1.76179551    0.03459920      17
Co     0.00000000    0.00000000    0.00000000      18
          18
Lattice="  24.8920   0.0000   0.0000   0.0000  24.8920   0.0000   0.0000   0.0000  24.8920 " ConfE="      -5948.9250" DelE="          0.9129"
Ni    -0.01949967    0.03136890   -3.52485659       1
Cr     3.41581073    0.01285798    0.16402672       2
Co     0.03342657    0.01902278    3.46095652       3
Co    -3.59474119   -0.02281297    0.05568479       4
Co    -0.03876797    3.66507318    0.03543030       5
Cr    -0.05540467   -3.58567119   -0.00097424       6
Ni    -0.06398431    1.97106061    1.83826752       7
Ni     1.76525680   -1.89469829    0.00801020       8
Ni    -0.04430770   -1.93483337    1.82389889       9
Co     1.78946019    1.92388588    0.04595628      10
Ni    -1.73458642    1.74195507    0.06636512      11
Co     1.73083550    0.01325904   -1.64338921      12
Co    -0.01805690    1.77600032   -1.68383498      13
Co    -1.76139820    0.02192234   -1.71862225      14
Cr    -0.08290789   -1.61866617   -1.62010086      15
Co    -1.73669661   -0.05555235    1.77640081      16
Co    -1.74390225   -1.76222471    0.02180627      17
Co     0.81888669    0.03157734    0.90097420      18
          18
Lattice="  24.8920   0.0000   0.0000   0.0000  24.8920   0.0000   0.0000   0.0000  24.8920 " ConfE="      -5950.1220" DelE="         -0.2841"
Ni    -0.02706238    0.03637930   -3.54126753       1
Cr     3.57716573    0.01545936    0.09666566       2
Co    -0.03598852    0.02478992    3.59661060       3
Co    -3.63034843   -0.03167078    0.04170820       4
Co    -0.03639563    3.59812801    0.06352891       5
Cr    -0.04361332   -3.49669818    0.02993824       6
Ni    -0.04787636    1.74415098    1.76689514       7
Ni     1.71285724   -1.68426418    0.01312809       8
Ni    -0.02084095   -1.70558476    1.77419879       9
Co     1.75667741    1.76067067    0.06731156      10
Ni    -1.78035703    1.71739879    0.04372769      11
Co     1.77531682    0.03882573   -1.72169183      12
Co    -0.02527289    1.74884369   -1.68926640      13
Co    -1.79036309    0.01966565   -1.74736764      14
Cr    -0.10213624   -1.59967399   -1.65856762      15
Co    -1.82588710   -0.04646939    1.80976100      16
Co    -1.75660000   -1.73499999    0.01167469      17
Co     1.75427028    0.03918668    1.80447550      18
