          18
Lattice="  24.8920   0.0000   0.0000   0.0000  24.8920   0.0000   0.0000   0.0000  24.8920 " ConfE="      -5943.2342" DelE="          0.0000"
Ni     0.06150442    3.46280349    0.00198166       1
Ni     0.04551181    0.00066574   -3.47248378       2
Ni    -3.49979298   -0.05299689    0.07735099       3
Cr     0.06077292   -3.62825681    0.00473028       4
Co     0.08283494   -0.02703345    3.62492146       5
Cr     3.69206710   -0.02726373    0.00153907       6
Ni    -1.72006472    1.73302940    0.02359122       7
Co    -1.63805956   -0.00364285   -1.70029023       8
Ni    -1.72869726   -1.81612841    0.05118835       9
Ni     0.05650147    1.73340095    1.83154498      10
Co     1.81336314    1.70827827   -0.03574837      11
Cr     1.74162119    0.12121737   -1.72706965      12
Ni     0.07497309   -1.81049963    1.81466092      13
Ni     1.83807619   -1.78157349    0.00901040      14
Cr    -1.70652561   -0.03211167    1.85708683      15
Co     0.06950272   -1.81862840   -1.71613381      16
Cr     1.84583150   -0.01704362    1.75775006      17
Cr     0.00000000    0.00000000    0.00000000      18
          18
Lattice="  24.8920   0.0000   0.0000   0.0000  24.8920   0.0000   0.0000   0.0000  24.8920 " ConfE="      -5942.6681" DelE="          0.5662"
Ni     0.05213999    3.44634605    0.00836878       1
Ni     0.04966152   -0.03493647   -3.44613923       2
Ni    -3.54934140   -0.06788136    0.08861277       3
Cr     0.06484282   -3.59906368   -0.01076432       4
Co     0.09058972   -0.01822959    3.62529992       5
Cr     3.75605699   -0.04652911    0.02526413       6
Ni    -1.82432035    1.74678156    0.05511375       7
Co    -1.77632010   -0.05440481   -1.73349492       8
Ni    -1.70837169   -1.77422349    0.04377671       9
Ni     0.05642936    1.69940213    1.74588547      10
Co     1.93643353    1.72839043    0.04302601      11
Cr     1.96257645    0.00559706   -1.77865835      12
Ni     0.08254757   -1.77996713    1.78022271      13
Ni     1.84201913   -1.74783163    0.00587411      14
Cr    -1.62336634   -0.02373724    1.75814061      15
Co     0.07910549   -1.75172756   -1.67838550      16
Cr     1.79746792    0.00201138    1.68668315      17
Cr     0.07288306    0.85171052   -0.90830201      18
          18
Lattice="  24.8920   0.0000   0.0000   0.0000  24.8920   0.0000   0.0000   0.0000  24.8920 " ConfE="      -5943.3206" DelE="         -0.0864"
Ni     0.07423786    3.50088404    0.03538309       1
Ni     0.04386985   -0.07373041   -3.54827563       2
Ni    -3.51791220   -0.05912454    0.08064514       3
Cr     0.05564808   -3.61587753    0.00694735       4
Co     0.09219909   -0.02367308    3.65544240       5
Cr     3.69351164   -0.02902598    0.00869564       6
Ni    -1.70119546    1.68993454    0.03664993       7
Co    -1.63091979   -0.01921566   -1.71357794       8
Ni    -1.70236616   -1.77812252    0.05959335       9
Ni     0.06485535    1.68280985    1.78058611      10
Co     1.81259826    1.65926222   -0.01776233      11
Cr     1.76428996    0.04525215   -1.72667515      12
Ni     0.07611347   -1.78556519    1.81145305      13
Ni     1.81781959   -1.75659922    0.02380518      14
Cr    -1.68446978   -0.03968647    1.85508793      15
Co     0.07648491   -1.76388125   -1.69381644      16
Cr     1.84364451   -0.01581070    1.75202807      17
Cr     0.02046475    1.71652630   -1.75932343      18
