          18
Lattice="  24.8920   0.0000   0.0000   0.0000  24.8920   0.0000   0.0000   0.0000  24.8920 " ConfE="      -5943.8642" DelE="          0.0000"
Co    -3.48239684    0.02798809   -0.01124609       1
Co    -0.05506243   -0.01234996   -3.51751112       2
Cr     3.53549891   -0.01710564    0.00888908       3
Co     0.03417191    0.03123412    3.56559461       4
Ni     0.00014202   -3.53582953    0.03656395       5
Ni     0.01018440    3.58976310   -0.00480726       6
Cr    -1.76841019   -1.72497579   -0.00785876       7
Cr    -1.74217665    1.69566991   -0.02592109       8
Co    -0.04029751   -1.74532418   -1.78430165       9
Co    -0.05613431    1.78462491   -1.71454439      10
Cr    -1.78222064    0.01464135    1.86501342      11
Ni     1.77938804    0.03674024   -1.77546875      12
Cr     1.81635541    0.00089115    1.77535358      13
Ni     0.00216328   -1.75174002    1.79680603      14
Cr    -0.01920824    1.79761536    1.76427301      15
Co     1.78930503   -1.75492909   -0.01824828      16
Ni     1.77874232    1.80138906    0.01140530      17
Ni     0.00000000    0.00000000    0.00000000      18
          18
Lattice="  24.8920   0.0000   0.0000   0.0000  24.8920   0.0000   0.0000   0.0000  24.8920 " ConfE="      -5943.3370" DelE="          0.5272"
Co    -3.43976059    0.05969734    0.00084609       1
Co    -0.05177847   -0.00090155   -3.49894415       2
Cr     3.54198078   -0.01971650    0.00345714       3
Co     0.02219139    0.02617025    3.56883285       4
Ni     0.00794496   -3.58698383    0.03615474       5
Ni     0.04936505    3.64470315    0.00468997       6
Cr    -1.83076222   -1.93514020    0.06614550       7
Cr    -1.80208484    2.03347682    0.02574095       8
Co    -0.01361326   -1.85992288   -1.80788754       9
Co     0.01802567    1.91508058   -1.76743490      10
Cr    -1.77399039    0.00744622    1.84822188      11
Ni     1.70265413    0.04648760   -1.73096165      12
Cr     1.72752528    0.01365820    1.69565279      13
Ni    -0.02292498   -1.74277776    1.75798562      14
Cr    -0.04847373    1.69030434    1.63860510      15
Co     1.74467743   -1.72389471   -0.01438313      16
Ni     1.78476538    1.82501840    0.00342997      17
Ni    -0.75544898    0.04111385   -0.55467204      18
          18
Lattice="  24.8920   0.0000   0.0000   0.0000  24.8920   0.0000   0.0000   0.0000  24.8920 " ConfE="      -5944.0892" DelE="         -0.2250"
Co    -3.54438994    0.01624316    0.03657125       1
Co    -0.01795068   -0.00682373   -3.55976853       2
Cr     3.54229916   -0.01768761    0.01210233       3
Co     0.03723865    0.02973308    3.59922679       4
Ni     0.01092383   -3.54607455    0.04860657       5
Ni     0.01588725    3.60412551    0.00154094       6
Cr    -1.70678540   -1.69392086    0.05228816       7
Cr    -1.68294117    1.66819445    0.02663174       8
Co     0.00427475   -1.75076336   -1.75333593       9
Co    -0.02896093    1.78577299   -1.69592183      10
Cr    -1.74662152    0.01716098    1.82516789      11
Ni     1.74456730    0.04079082   -1.75070702      12
Cr     1.77365003    0.02192775    1.74725225      13
Ni     0.01378421   -1.71577606    1.78189601      14
Cr     0.00421052    1.74653442    1.74378931      15
Co     1.75525565   -1.69458455    0.00255852      16
Ni     1.75273758    1.77571192    0.01440124      17
Ni    -1.72998441   -0.00107238   -1.72402665      18
