          18
Lattice="  24.8920   0.0000   0.0000   0.0000  24.8920   0.0000   0.0000   0.0000  24.8920 " ConfE="      -5933.9502" DelE="          0.0000"
Ni    -3.50667105   -0.00832373   -0.02983094       1
Ni     0.03784978   -3.53708358   -0.05685902       2
Cr     3.59077798    0.01665083   -0.04422940       3
Co    -0.00638675    3.58190172   -0.06137360       4
Co     0.05307993   -0.01179712    3.48170316       5
Cr     0.00000938   -0.01467511   -3.59864306       6
Co    -1.68948663    0.00771920    1.66933594       7
Ni    -1.76894725   -0.02791727   -1.77869845       8
Ni    -0.00695473   -1.77527240    1.69012113       9
Ni    -0.02826896   -1.76608706   -1.75769059      10
Cr    -1.70302736    1.75548751   -0.01479775      11
Cr     1.84273489   -1.75147915   -0.08233531      12
Ni     1.80362481    1.76892543   -0.04974776      13
Ni     0.03808996    1.82180185    1.74183389      14
Co     0.00812560    1.76659348   -1.82757018      15
Cr     1.77646413   -0.00190439    1.74063092      16
Cr     1.77266457   -0.00980416   -1.86985936      17
Cr     0.00000000    0.00000000    0.00000000      18
          18
Lattice="  24.8920   0.0000   0.0000   0.0000  24.8920   0.0000   0.0000   0.0000  24.8920 " ConfE="      -5933.0104" DelE="          0.9398"
Ni    -3.45128963    0.00021206   -0.04396805       1
Ni     0.02978799   -3.48670794   -0.05479015       2
Cr     3.57562084    0.00183018   -0.04412332       3
Co    -0.01932445    3.59231385   -0.06164697       4
Co     0.08512443    0.00676193    3.54051099       5
Cr     0.03114924    0.00903479   -3.69176511       6
Co    -1.71370570    0.04143443    1.84010190       7
Ni    -1.76736175    0.00541780   -1.92185486       8
Ni     0.05904071   -1.81917437    1.86896684       9
Ni     0.01649462   -1.78831938   -1.92105056      10
Cr    -1.66494235    1.70385469   -0.04646011      11
Cr     1.77573771   -1.75937116   -0.09604695      12
Ni     1.75689990    1.74423305   -0.05698215      13
Ni     0.01462393    1.77467787    1.70875430      14
Co    -0.01754987    1.72390485   -1.80040504      15
Cr     1.67749005   -0.04898542    1.55859767      16
Cr     1.69341591   -0.02541438   -1.76498937      17
Cr    -1.00335994   -0.99713624    0.02709411      18
          18
Lattice="  24.8920   0.0000   0.0000   0.0000  24.8920   0.0000   0.0000   0.0000  24.8920 " ConfE="      -5933.7889" DelE="          0.1614"
Ni    -3.57476249    0.02534626   -0.03355663       1
Ni     0.04392034   -3.54962474   -0.05228321       2
Cr     3.62200570    0.02041784   -0.04932512       3
Co    -0.00949853    3.60102843   -0.06349861       4
Co     0.06606804   -0.00512080    3.50318955       5
Cr     0.01781718   -0.01229643   -3.61257615       6
Co    -1.69161975    0.02328446    1.65866901       7
Ni    -1.75398819    0.00088457   -1.79167118       8
Ni     0.01714391   -1.73013503    1.66759027       9
Ni     0.00875713   -1.72519651   -1.74579133      10
Cr    -1.66140625    1.64964090   -0.01066590      11
Cr     1.81930588   -1.70095062   -0.07343596      12
Ni     1.78326756    1.73827783   -0.06095597      13
Ni     0.04299202    1.78929844    1.70818229      14
Co     0.00093139    1.75361614   -1.81453357      15
Cr     1.78552487    0.00011301    1.66903158      16
Cr     1.77698514   -0.00965708   -1.83708902      17
Cr    -1.77192489   -1.67569031   -0.00480686      18
