          18
Lattice="  24.8920   0.0000   0.0000   0.0000  24.8920   0.0000   0.0000   0.0000  24.8920 " ConfE="      -5940.7736" DelE="          0.0000"
Co     0.03796399    0.03433496   -3.55135783       1
Cr    -3.56156640   -0.01459257    0.00894618       2
Ni     0.00964786   -3.52225061   -0.01324247       3
Co     0.06141605    3.51624239   -0.00362256       4
Cr     0.02781653    0.00964085    3.57215551       5
Co     3.55876102    0.02664372   -0.02405429       6
Ni    -1.77193228   -1.72756285   -0.02412166       7
Ni     0.00734832   -1.75507740   -1.78317507       8
Ni    -0.02052062    1.74729121   -1.75415788       9
Co    -1.74687089    1.74655940    0.01669302      10
Ni     0.04233512   -1.75231442    1.77861598      11
Cr     1.80441340    0.03997475   -1.79820447      12
Co    -1.74915370    0.02976271    1.84849260      13
Cr     1.84999811   -1.76325078   -0.06596003      14
Cr     1.79501567    1.77652589    0.04462992      15
Cr    -0.00186025    1.75727563    1.80500174      16
Co     1.83146243    0.01667713    1.77776126      17
Ni     0.00000000    0.00000000    0.00000000      18
          18
Lattice="  24.8920   0.0000   0.0000   0.0000  24.8920   0.0000   0.0000   0.0000  24.8920 " ConfE="      -5939.7123" DelE="          1.0613"
Co     0.03923461    0.04251769   -3.53655617       1
Cr    -3.51462337   -0.01402252    0.00776013       2
Ni     0.02296712   -3.59210323    0.01647088       3
Co     0.08096150    3.58098295    0.01971123       4
Cr     0.00784319    0.00710597    3.58787394       5
Co     3.55767290    0.02824525   -0.02323738       6
Ni    -1.77016888   -1.85730866    0.05276252       7
Ni     0.05768239   -1.91092701   -1.78474107       8
Ni     0.04140225    1.92114175   -1.79027113       9
Co    -1.70452458    1.89582885    0.11323335      10
Ni     0.03978905   -1.72876686    1.74684549      11
Cr     1.65562643    0.04307927   -1.73710587      12
Co    -1.70847365    0.04021556    1.78156438      13
Cr     1.77534170   -1.68945958   -0.05758668      14
Cr     1.70663819    1.70492944    0.04219713      15
Cr    -0.03712031    1.72117720    1.75795894      16
Co     1.79059713    0.03039641    1.74263727      17
Ni    -1.14101829    0.02934685   -1.16348064      18
          18
Lattice="  24.8920   0.0000   0.0000   0.0000  24.8920   0.0000   0.0000   0.0000  24.8920 " ConfE="      -5940.3255" DelE="          0.4481"
Co     0.05637990    0.03610913   -3.58331926       1
Cr    -3.59894584   -0.01609934    0.02830733       2
Ni     0.01188044   -3.52746000   -0.00836369       3
Co     0.07474985    3.53919184    0.00805741       4
Cr     0.02001248    0.00982526    3.58927221       5
Co     3.59820682    0.02632372   -0.02253079       6
Ni    -1.75047369   -1.72322067    0.00786879       7
Ni     0.02690842   -1.74297216   -1.75139260       8
Ni     0.02612612    1.73808148   -1.70905813       9
Co    -1.68564628    1.74406916    0.06544226      10
Ni     0.04659444   -1.71188023    1.74827187      11
Cr     1.76801865    0.03308776   -1.75918036      12
Co    -1.71330281    0.04338048    1.80528420      13
Cr     1.83100324   -1.70527489   -0.05642869      14
Cr     1.77718829    1.70485043    0.06120876      15
Cr    -0.01437369    1.71213028    1.77620019      16
Co     1.80613477    0.02489107    1.73652280      17
Ni    -1.74295347    0.02245736   -1.72397234      18
