          18
Lattice="  24.8920   0.0000   0.0000   0.0000  24.8920   0.0000   0.0000   0.0000  24.8920 " ConfE="      -5938.2725" DelE="          0.0000"
Ni    -3.46908603   -0.00436481    0.01023763       1
Ni     0.03303843    0.00350293    3.63365243       2
Cr     0.06912993   -0.06818226   -3.51314185       3
Cr     3.57364132    0.04416489   -0.00551605       4
Cr     0.01098106    3.55983795    0.04312110       5
Cr     0.06192839   -3.50154137    0.01494501       6
Ni    -1.72314061    1.73928329    0.01964679       7
Ni    -1.71985306   -1.74533419    0.01219650       8
Ni     0.02053595    1.71567855   -1.76173596       9
Ni     1.81612158   -1.75046716    0.04062052      10
Ni     1.82704652    0.00614544   -1.75437254      11
Co     0.05152857   -1.76670984   -1.76785781      12
Ni     1.80107372    0.01415714    1.81519275      13
Ni     0.05552310   -1.73992111    1.82171570      14
Ni     0.03107831    1.77768761    1.80436441      15
Co     1.80223167    1.81125423    0.02885652      16
Cr    -1.77760472    0.00902800    1.86116541      17
Ni     0.00000000    0.00000000    0.00000000      18
          18
Lattice="  24.8920   0.0000   0.0000   0.0000  24.8920   0.0000   0.0000   0.0000  24.8920 " ConfE="      -5937.5782" DelE="          0.6943"
Ni    -3.42022128   -0.00997946   -0.00924626       1
Ni     0.02698662    0.00769290    3.62911702       2
Cr     0.04536194   -0.04962060   -3.48364298       3
Cr     3.57136539    0.04510891   -0.01964096       4
Cr     0.02360335    3.65273427    0.06780770       5
Cr     0.08064147   -3.58274721    0.04994607       6
Ni    -1.72506245    1.85953406    0.06081142       7
Ni    -1.74116401   -1.91058071    0.07867530       8
Ni     0.07835925    1.89389296   -1.75656554       9
Ni     1.78981214   -1.74148601    0.04780221      10
Ni     1.71928468   -0.00286074   -1.71633998      11
Co     0.14957792   -1.99238190   -1.76762981      12
Ni     1.77756859    0.02274955    1.78595034      13
Ni     0.04507389   -1.71969102    1.78684845      14
Ni     0.02694981    1.76723784    1.76592951      15
Co     1.78832683    1.81548491    0.02274344      16
Cr    -1.72746523    0.00726650    1.76761917      17
Ni    -0.97159118   -0.06327305   -1.07745124      18
          18
Lattice="  24.8920   0.0000   0.0000   0.0000  24.8920   0.0000   0.0000   0.0000  24.8920 " ConfE="      -5938.2751" DelE="         -0.0026"
Ni    -3.49327561   -0.00812892    0.02900659       1
Ni     0.03638108    0.00475640    3.64988125       2
Cr     0.09101675   -0.05905897   -3.56322514       3
Cr     3.58341670    0.04561070   -0.00763288       4
Cr     0.01625431    3.59860638    0.05803308       5
Cr     0.07154544   -3.54312445    0.03747638       6
Ni    -1.67519596    1.71212113    0.04448051       7
Ni    -1.68262322   -1.73751519    0.04764310       8
Ni     0.05343503    1.73048005   -1.73136594       9
Ni     1.79581224   -1.72917597    0.05121692      10
Ni     1.79061249   -0.00074449   -1.73648819      11
Co     0.08730634   -1.80588274   -1.73139701      12
Ni     1.79238699    0.02012031    1.80179029      13
Ni     0.05458189   -1.71007573    1.80702032      14
Ni     0.03562215    1.75545117    1.78799040      15
Co     1.79347272    1.80208232    0.03250919      16
Cr    -1.77347036    0.00736397    1.85331992      17
Ni    -1.66460990   -0.02995648   -1.73898898      18
