          18
Lattice="  24.8920   0.0000   0.0000   0.0000  24.8920   0.0000   0.0000   0.0000  24.8920 " ConfE="      -5927.7337" DelE="          0.0000"
Ni     0.00983074   -0.01619631   -3.36124923       1
Co     0.00799033   -3.51516871    0.07725955       2
Cr    -3.57158566    0.02518630    0.03772688       3
Co     0.00818111    0.05874402    3.61054987       4
Co     3.52744466    0.04125211    0.09723101       5
Co    -0.03375244    3.62850822    0.09125511       6
Ni    -1.75430540   -1.75365193    0.01113334       7
Ni    -0.01701755   -1.71015162    1.86107007       8
Co     1.73373322   -1.70472664    0.02287108       9
Cr    -1.81406861    0.01059686   -1.70510082      10
Cr     1.77628445   -0.00568090   -1.58747175      11
Ni     0.00416847    1.83533354   -1.66830370      12
Ni    -1.77416389    0.03192662    1.81835052      13
Ni    -1.79211179    1.80292366    0.06757055      14
Ni     1.78309263    1.79686635    0.09176833      15
Ni     0.00831215    1.79633382    1.84402873      16
Cr     1.82396989   -0.04905626    1.79877057      17
Co     0.00000000    0.00000000    0.00000000      18
          18
Lattice="  24.8920   0.0000   0.0000   0.0000  24.8920   0.0000   0.0000   0.0000  24.8920 " ConfE="      -5926.5642" DelE="          1.1694"
Ni     0.00135320    0.02012721   -3.37022386       1
Co     0.00417394   -3.41956513    0.04447996       2
Cr    -3.71104203    0.03492906    0.04190730       3
Co     0.00114697    0.07484576    3.58148329       4
Co     3.58723474    0.04511888    0.10646868       5
Co    -0.03638441    3.56266011    0.14069544       6
Ni    -1.89324676   -1.73947483    0.08376852       7
Ni    -0.02804658   -1.63082270    1.80343223       8
Co     1.87289131   -1.71672364    0.13330106       9
Cr    -1.92761297    0.07520646   -1.68990559      10
Cr     1.94049961    0.12104352   -1.62687507      11
Ni     0.00822672    1.76443220   -1.58398419      12
Ni    -1.95801885   -0.01483683    1.83711357      13
Ni    -1.88011056    1.77462621    0.06661859      14
Ni     1.90360689    1.81801854    0.06288389      15
Ni     0.07623755    0.93960198    1.20113070      16
Cr     2.02076504   -0.12160550    1.88038977      17
Co     0.02227569   -0.85102568   -0.97493791      18
          18
Lattice="  24.8920   0.0000   0.0000   0.0000  24.8920   0.0000   0.0000   0.0000  24.8920 " ConfE="      -5927.6629" DelE="          0.0708"
Ni     0.00643459    0.03540159   -3.42023906       1
Co     0.00644411   -3.53056030    0.09765409       2
Cr    -3.58503655    0.03604708    0.06114664       3
Co     0.02757496    0.10233047    3.53805458       4
Co     3.51914058    0.04084418    0.10736214       5
Co    -0.04791478    3.57842233    0.15102372       6
Ni    -1.78039550   -1.75118071    0.06360165       7
Ni    -0.01467285   -1.73847685    1.86622554       8
Co     1.77024720   -1.72579025    0.07476534       9
Cr    -1.82227788    0.02810318   -1.68516870      10
Cr     1.81172931    0.02423289   -1.62943471      11
Ni     0.00520761    1.80467923   -1.66071794      12
Ni    -1.77374399    0.05610588    1.83676374      13
Ni    -1.78713902    1.79887559    0.09715908      14
Ni     1.76056810    1.76636011    0.14122658      15
Ni     0.00894244    0.04199971    0.12701734      16
Cr     1.84823327   -0.05090938    1.88311018      17
Co    -0.00948173   -1.74860177   -1.69195487      18
