          18
Lattice="  24.8920   0.0000   0.0000   0.0000  24.8920   0.0000   0.0000   0.0000  24.8920 " ConfE="      -5924.1449" DelE="          0.0000"
Ni     0.02724576   -0.04896951    3.53756215       1
Ni     0.03307262    3.49585684   -0.02266564       2
Co    -3.49399385    0.00174809    0.02879147       3
Cr     0.03938519   -3.48226303   -0.05328487       4
Cr     0.06362190   -0.08677881   -3.56658263       5
Co     3.58501779   -0.01095909   -0.02693118       6
Ni     0.06028417   -1.80151347    1.77827418       7
Ni    -1.74869163   -1.73297093    0.01441279       8
Ni    -0.02842389    1.68722239    1.76208976       9
Ni     0.03442032    1.71685722   -1.80071772      10
Co    -1.76481516    1.75609116   -0.04942342      11
Co     1.84614669   -0.05751311    1.76127531      12
Co     1.80518115   -1.77704633   -0.03720156      13
Co     0.03193356   -1.75071180   -1.81815886      14
Co     1.84316690   -0.02968697   -1.81920983      15
Co    -1.76403659   -0.05903641   -1.87018357      16
Cr     1.81589093    1.68511765   -0.01258660      17
Ni     0.00000000    0.00000000    0.00000000      18
          18
Lattice="  24.8920   0.0000   0.0000   0.0000  24.8920   0.0000   0.0000   0.0000  24.8920 " ConfE="      -5923.4637" DelE="          0.6812"
Ni     0.01910345   -0.03815852    3.48830087       1
Ni     0.05268556    3.53659510   -0.03044832       2
Co    -3.43158527   -0.01636660    0.01239874       3
Cr     0.06646761   -3.53586285   -0.06969085       4
Cr     0.05717920   -0.09058694   -3.58194295       5
Co     3.60250914   -0.02319759   -0.01942894       6
Ni     0.11573324   -1.93084751    1.81185622       7
Ni    -1.77753700   -1.92449620   -0.07047175       8
Ni     0.04377113    1.85576609    1.80435980       9
Ni     0.04401377    1.68583520   -1.76675164      10
Co    -1.79040085    1.90930897   -0.13750231      11
Co     1.78433692   -0.03398814    1.71350782      12
Co     1.76976847   -1.75935899   -0.03359616      13
Co     0.03232605   -1.73751184   -1.80151694      14
Co     1.81996605   -0.02768023   -1.78000308      15
Co    -1.73971933   -0.06126154   -1.83247885      16
Cr     1.75765208    1.62012237    0.00527065      17
Ni    -0.76504258   -0.02212872    0.74852879      18
          18
Lattice="  24.8920   0.0000   0.0000   0.0000  24.8920   0.0000   0.0000   0.0000  24.8920 " ConfE="      -5924.1418" DelE="          0.0031"
Ni     0.05911614   -0.03918129    3.55810449       1
Ni     0.05153495    3.50510205   -0.03229365       2
Co    -3.55147926   -0.00547233   -0.00300471       3
Cr     0.04892098   -3.50812766   -0.06349232       4
Cr     0.06811979   -0.09235759   -3.58444988       5
Co     3.62029865   -0.02204606   -0.02317947       6
Ni     0.07803562   -1.80023507    1.76052873       7
Ni    -1.71107394   -1.72592109   -0.02245657       8
Ni     0.05913314    1.67979122    1.69361790       9
Ni     0.05387647    1.65628587   -1.75758794      10
Co    -1.74483901    1.74902600   -0.07745832      11
Co     1.83079404   -0.05750045    1.72161944      12
Co     1.78055226   -1.74973957   -0.04410353      13
Co     0.04369444   -1.71625812   -1.80627778      14
Co     1.84833944   -0.02798119   -1.79286486      15
Co    -1.75919667   -0.06061940   -1.85125060      16
Cr     1.81483731    1.62252008   -0.02869223      17
Ni    -1.70370440   -0.00018210    1.72159439      18
