          18
Lattice="  24.8920   0.0000   0.0000   0.0000  24.8920   0.0000   0.0000   0.0000  24.8920 " ConfE="      -5941.9989" DelE="          0.0000"
Co     0.03920148    3.51345690   -0.02371020       1
Ni    -3.50059194    0.05796808    0.01036699       2
Cr    -0.03088849   -3.53368462    0.01295764       3
Cr     3.56932339   -0.07163750   -0.01127388       4
Ni     0.00078822    0.00348176    3.55238988       5
Ni    -0.01533265   -0.02654736   -3.57645566       6
Ni    -0.00974714    1.79224353    1.73858758       7
Co    -0.00309765    1.74051527   -1.74108376       8
Ni    -1.78076763    0.07643236    1.73928373       9
Cr    -1.76105327    0.10327687   -1.72585990      10
Cr     1.83746475    1.75331205   -0.02860483      11
Co    -1.73145982   -1.80883396   -0.02719455      12
Cr     1.79096203   -1.80636685   -0.03923888      13
Co     1.78764992   -0.05001460    1.75244736      14
Co     1.76793173   -0.02872702   -1.79839142      15
Co     0.04798563   -1.81677660    1.74833027      16
Cr    -0.03501912   -1.77193840   -1.79865503      17
Ni     0.00000000    0.00000000    0.00000000      18
          18
Lattice="  24.8920   0.0000   0.0000   0.0000  24.8920   0.0000   0.0000   0.0000  24.8920 " ConfE="      -5941.2524" DelE="          0.7465"
Co     0.01866658    3.47292625   -0.01166789       1
Ni    -3.45968624    0.05809912    0.01229830       2
Cr    -0.03040672   -3.53429223    0.02170229       3
Cr     3.58194409   -0.04537813   -0.01633477       4
Ni     0.00839939   -0.00846687    3.61902790       5
Ni     0.00882623   -0.03801121   -3.64387422       6
Ni     0.01738775    1.80367131    1.89532182       7
Co     0.06740387    1.81179154   -1.96499752       8
Ni    -1.81816377    0.00922691    1.91488464       9
Cr    -1.78159722   -0.03544542   -1.92551651      10
Cr     1.67865406    1.65110261   -0.01511891      11
Co    -1.69767154   -1.73592900   -0.03678166      12
Cr     1.70601537   -1.66852368   -0.02763848      13
Co     1.73179257   -0.02801038    1.71491618      14
Co     1.71764872   -0.01357850   -1.79072293      15
Co     0.02478131   -1.76253722    1.70288234      16
Cr    -0.02839882   -1.72630677   -1.75473498      17
Ni    -0.98718467    0.97172422   -0.04562060      18
          18
Lattice="  24.8920   0.0000   0.0000   0.0000  24.8920   0.0000   0.0000   0.0000  24.8920 " ConfE="      -5941.8284" DelE="          0.1706"
Co     0.04554431    3.55239944   -0.01473485       1
Ni    -3.54093206    0.02079252    0.00797315       2
Cr    -0.01679977   -3.56334768    0.02077265       3
Cr     3.61547849   -0.07030508   -0.00700698       4
Ni     0.00777375   -0.00427064    3.56678211       5
Ni    -0.00658535   -0.03622447   -3.59119733       6
Ni     0.02019178    1.75895413    1.74320591       7
Co     0.04436797    1.70093515   -1.71352038       8
Ni    -1.74833453    0.02332699    1.74604639       9
Cr    -1.70274840    0.01562625   -1.71670988      10
Cr     1.77686860    1.68540445   -0.02714943      11
Co    -1.68523461   -1.74322872   -0.05130757      12
Cr     1.76438553   -1.74489200   -0.02413604      13
Co     1.75750968   -0.04909640    1.69792964      14
Co     1.73998111   -0.04523118   -1.76054384      15
Co     0.05690060   -1.79584482    1.69384739      16
Cr    -0.00929196   -1.75810548   -1.74442688      17
Ni    -1.72892503    1.76305184    0.00317884      18
