          18
Lattice="  24.8920   0.0000   0.0000   0.0000  24.8920   0.0000   0.0000   0.0000  24.8920 " ConfE="      -5929.4185" DelE="          0.0000"
Cr    -0.04612652   -3.54733695    0.00907029       1
Cr    -0.02235250    0.01412022    3.33307198       2
Cr     0.04523630    3.58712904   -0.02655639       3
Co     0.06962531   -0.02460586   -3.68361177       4
Ni    -3.53245366    0.04021843   -0.06516651       5
Ni     3.52580745    0.01904463   -0.08366819       6
Ni    -1.74074145   -1.74953790   -0.03013749       7
Ni     1.71965477   -1.75816129   -0.05234741       8
Co    -1.78355420    0.04491923    1.73492371       9
Co     1.77746323    0.05072785    1.74590644      10
Co     0.01081668   -1.80825882   -1.90666475      11
Co     0.01672912    1.84727923    1.75844527      12
Ni     0.00098230    1.79161175   -1.84100562      13
Ni    -1.73037639    0.01958977   -1.85841747      14
Cr     1.73382832   -0.01846208   -1.87386786      15
Ni    -1.75569951    1.81273807   -0.06168783      16
Ni     1.76428886    1.79159629   -0.07071085      17
Ni     0.00000000    0.00000000    0.00000000      18
          18
Lattice="  24.8920   0.0000   0.0000   0.0000  24.8920   0.0000   0.0000   0.0000  24.8920 " ConfE="      -5928.9815" DelE="          0.4371"
Cr    -0.03978312   -3.47610795    0.05010925       1
Cr    -0.04408434    0.01666315    3.29264363       2
Cr     0.04404407    3.60185880   -0.02055147       3
Co     0.06583075   -0.02867108   -3.69827156       4
Ni    -3.58908003    0.04365585   -0.09682837       5
Ni     3.57934549    0.01588958   -0.10778948       6
Ni    -1.86234356   -1.77538582   -0.08137868       7
Ni     1.86656025   -1.80374145   -0.10030498       8
Co    -1.97048537    0.09674486    1.73807224       9
Co     1.98756961    0.10880195    1.79407522      10
Co     0.01286037   -1.78307716   -1.85920952      11
Co     0.00441751    1.76913908    1.75189098      12
Ni    -0.00395818    1.76615729   -1.81885689      13
Ni    -1.73102140    0.01187009   -1.84469035      14
Cr     1.68525712   -0.03705232   -1.81412136      15
Ni    -1.73757953    1.77518737   -0.06238349      16
Ni     1.72688403    1.73117967   -0.06078842      17
Ni     0.02173402   -0.57303487    0.64101497      18
          18
Lattice="  24.8920   0.0000   0.0000   0.0000  24.8920   0.0000   0.0000   0.0000  24.8920 " ConfE="      -5929.5942" DelE="         -0.1757"
Cr    -0.04010709   -3.59434716   -0.07335987       1
Cr    -0.00489885    0.12211784    3.40858985       2
Cr     0.04706790    3.59740921   -0.02793861       3
Co     0.06347299   -0.01925791   -3.70778113       4
Ni    -3.54568186    0.04491583   -0.08046964       5
Ni     3.53985367    0.02225485   -0.09804496       6
Ni    -1.73803020   -1.72069495   -0.08199359       7
Ni     1.71259527   -1.71451923   -0.09956810       8
Co    -1.79634783    0.06245414    1.70252274       9
Co     1.78507084    0.06698122    1.71854735      10
Co     0.01561524   -1.78931777   -1.90083035      11
Co     0.00874231    1.77618168    1.73998619      12
Ni     0.00328148    1.78275908   -1.83517549      13
Ni    -1.70953880    0.02799986   -1.85109504      14
Cr     1.71618423   -0.00914410   -1.88820328      15
Ni    -1.72166747    1.78892323   -0.06773872      16
Ni     1.72744770    1.75519481   -0.08449842      17
Ni    -0.01651722   -1.68939825    1.66058202      18
