          18
Lattice="  24.8920   0.0000   0.0000   0.0000  24.8920   0.0000   0.0000   0.0000  24.8920 " ConfE="      -5923.0735" DelE="          0.0000"
Co    -3.47547431    0.03879633   -0.06438852       1
Ni    -0.01983491   -0.03463525   -3.53317452       2
Cr     3.54286740   -0.04535644    0.15115972       3
Cr     0.01936679    0.00388763    3.53609605       4
Co     0.01726879   -3.49368443   -0.01818241       5
Co     0.00682474    3.52067533   -0.02376007       6
Ni    -1.74343175   -1.74174923   -0.03059700       7
Cr    -1.79199487    1.73337208   -0.03873835       8
Cr     0.02482369   -1.73690200   -1.75842756       9
Ni    -0.03263484    1.70993240   -1.77682926      10
Cr    -1.77120619    0.01806441    1.80250268      11
Co     1.86359366    0.00339926   -1.77982746      12
Co     1.77343168    0.00182716    1.79449761      13
Co     0.01196771   -1.75361003    1.80435578      14
Co    -0.01368408    1.77168594    1.78134598      15
Co     1.80336451   -1.75656810    0.01447655      16
Co     1.81720782    1.76999198   -0.01217795      17
Ni     0.00000000    0.00000000    0.00000000      18
          18
Lattice="  24.8920   0.0000   0.0000   0.0000  24.8920   0.0000   0.0000   0.0000  24.8920 " ConfE="      -5922.4303" DelE="          0.6432"
Co    -3.47702952    0.01633754   -0.05384722       1
Ni    -0.01994799   -0.03248413   -3.48547497       2
Cr     3.54298327   -0.02702672    0.15965091       3
Cr     0.00280293    0.00951067    3.53233676       4
Co     0.02542283   -3.52657902   -0.02285487       5
Co     0.01454467    3.57289633   -0.01502335       6
Ni    -1.83548947   -1.92557722    0.02098618       7
Cr    -1.79650593    1.88387246   -0.00255357       8
Cr     0.15452271   -1.91187312   -1.74803583       9
Ni     0.04205816    1.88450522   -1.82924119      10
Cr    -1.68823140   -0.02062482    1.68257411      11
Co     1.81197172    0.01664861   -1.75134743      12
Co     1.71315386    0.00615514    1.73427505      13
Co    -0.01941023   -1.72837159    1.74442856      14
Co    -0.03996023    1.74359578    1.72070674      15
Co     1.75200344   -1.73875843   -0.00561264      16
Co     1.78616366    1.76513402   -0.02480907      17
Ni    -0.82226160   -0.04748324   -0.87503260      18
          18
Lattice="  24.8920   0.0000   0.0000   0.0000  24.8920   0.0000   0.0000   0.0000  24.8920 " ConfE="      -5923.0648" DelE="          0.0086"
Co    -3.53888864    0.01437353   -0.01151868       1
Ni     0.01153284   -0.03036559   -3.56463923       2
Cr     3.55087169   -0.02621417    0.17443350       3
Cr     0.02025350    0.00299022    3.55517863       4
Co     0.01943069   -3.51669897   -0.01459769       5
Co     0.02459126    3.55610983   -0.01566434       6
Ni    -1.70172773   -1.73799784    0.00695550       7
Cr    -1.71873525    1.73827930    0.01639839       8
Cr     0.12256921   -1.72304616   -1.68440209       9
Ni     0.02225447    1.71413819   -1.73877090      10
Cr    -1.70836695    0.01588443    1.74075457      11
Co     1.83005832    0.00482022   -1.75825312      12
Co     1.73428506    0.00597874    1.75930010      13
Co     0.00840248   -1.71775670    1.78451997      14
Co    -0.02164119    1.73146194    1.73303078      15
Co     1.74429865   -1.72080293    0.00672324      16
Co     1.80513568    1.75595068   -0.00681916      17
Ni    -1.71162668   -0.02510005   -1.72932923      18
