          18
Lattice="  24.8920   0.0000   0.0000   0.0000  24.8920   0.0000   0.0000   0.0000  24.8920 " ConfE="      -5931.9362" DelE="          0.0000"
Cr    -3.39262105    0.01229469   -0.02382354       1
Co     0.07093501   -3.48375224   -0.02774822       2
Cr     3.64949361    0.14372853   -0.05563491       3
Cr     0.08059316    3.64100392   -0.03418078       4
Ni     0.10159896    0.00403624   -3.56767302       5
Co     0.06742028    0.04715195    3.52168200       6
Co    -1.68381620    0.00232289   -1.75164812       7
Co    -1.70595395    0.03086384    1.72009938       8
Ni     0.07786608   -1.73889668   -1.75390317       9
Ni     0.05725269   -1.73002469    1.74776149      10
Cr    -1.70952643    1.84773746   -0.04198651      11
Co     1.89478950   -1.70875504    0.01047108      12
Ni     1.82413691    1.81829005    0.01048321      13
Co     0.05963202    1.80348395   -1.78496364      14
Cr     0.04753757    1.80558214    1.80415926      15
Co     1.85804678    0.05215007   -1.75151239      16
Cr     1.83580585    0.06808997    1.78091436      17
Cr     0.00000000    0.00000000    0.00000000      18
          18
Lattice="  24.8920   0.0000   0.0000   0.0000  24.8920   0.0000   0.0000   0.0000  24.8920 " ConfE="      -5931.1438" DelE="          0.7924"
Cr    -3.44936539    0.01494558   -0.03483851       1
Co     0.07246019   -3.46679160   -0.03387850       2
Cr     3.61085483    0.10463949   -0.05297818       3
Cr     0.05416099    3.60156843   -0.04260088       4
Ni     0.11751003    0.01571156   -3.62266867       5
Co     0.09082164    0.06174129    3.58414356       6
Co    -1.68031813    0.01998253   -1.87765694       7
Co    -1.71878605    0.06788049    1.85453650       8
Ni     0.15829547   -1.75338694   -1.89704157       9
Ni     0.10827003   -1.77583208    1.91294212      10
Cr    -1.68070544    1.72465058   -0.07124897      11
Co     1.77757099   -1.68405080    0.01125268      12
Ni     1.79534014    1.78338477    0.00131936      13
Co     0.03904066    1.74818186   -1.75348969      14
Cr     0.00968256    1.69953556    1.71969086      15
Co     1.83121590    0.04688469   -1.74514514      16
Cr     1.73479731    0.01389558    1.67829402      17
Cr    -0.94295534   -1.01458864    0.01404124      18
          18
Lattice="  24.8920   0.0000   0.0000   0.0000  24.8920   0.0000   0.0000   0.0000  24.8920 " ConfE="      -5931.7348" DelE="          0.2014"
Cr    -3.50928111    0.02711059   -0.04541124       1
Co     0.09433299   -3.50555537   -0.01292456       2
Cr     3.64986327    0.14313701   -0.06122052       3
Cr     0.06233943    3.60848387   -0.03818191       4
Ni     0.11488004    0.01075271   -3.59937106       5
Co     0.08260602    0.05810055    3.56496869       6
Co    -1.66030775    0.01545419   -1.79354479       7
Co    -1.68701114    0.06312821    1.75809274       8
Ni     0.11337267   -1.69969229   -1.74880246       9
Ni     0.08501105   -1.67835287    1.75491526      10
Cr    -1.61949065    1.61139103   -0.06544979      11
Co     1.85222790   -1.66788087    0.01923532      12
Ni     1.80570980    1.78354890    0.01072700      13
Co     0.06672698    1.78159909   -1.76857545      14
Cr     0.05111907    1.76036211    1.76496679      15
Co     1.86850704    0.06228083   -1.75229182      16
Cr     1.84015252    0.06854374    1.76868148      17
Cr    -1.64642143   -1.58854663    0.01027928      18
