          18
Lattice="  24.8920   0.0000   0.0000   0.0000  24.8920   0.0000   0.0000   0.0000  24.8920 " ConfE="      -5949.4646" DelE="          0.0000"
Co     3.51965333    0.05054739   -0.03931000       1
Ni     0.01591523   -0.00329826   -3.61043619       2
Co    -0.02296418    0.00263600    3.46448363       3
Cr    -0.02776607    3.55265317    0.03873690       4
Cr    -0.00523881   -3.51341861    0.01561756       5
Co    -3.53797913    0.02759375   -0.04169274       6
Ni     1.75135870    1.75973054   -0.01719803       7
Ni     1.75533840    0.00044893   -1.82886297       8
Ni     0.00355552    1.79787872   -1.80939543       9
Cr     0.02069007    1.68209440    1.76948027      10
Co     1.73909767   -1.73722088    0.03017289      11
Ni    -1.75851074   -0.01797249   -1.79568645      12
Co    -0.00292763   -1.76268581    1.73170681      13
Cr     0.01110599   -1.79215343   -1.79441936      14
Co    -1.80131027    0.01926009    1.72426809      15
Co    -1.76867291    1.81371103   -0.02039130      16
Cr    -1.77487529   -1.80458253    0.03378007      17
Ni     0.00000000    0.00000000    0.00000000      18
          18
Lattice="  24.8920   0.0000   0.0000   0.0000  24.8920   0.0000   0.0000   0.0000  24.8920 " ConfE="      -5948.8496" DelE="          0.6151"
Co     3.48538470    0.04626054   -0.02111411       1
Ni     0.02570399   -0.00228176   -3.60184741       2
Co    -0.03327104   -0.00264187    3.44370062       3
Cr    -0.01551421    3.61818954   -0.00997894       4
Cr    -0.02743778   -3.59211258    0.00513202       5
Co    -3.54381402    0.03709184   -0.04273876       6
Ni     1.78941679    1.88534353   -0.08591746       7
Ni     1.72225682    0.00325298   -1.75988797       8
Ni     0.00738769    1.80943108   -1.79648531       9
Cr    -0.10814969    1.93934858    1.72860978      10
Co     1.74655420   -1.86065708   -0.02100273      11
Ni    -1.70543635   -0.01309845   -1.74600420      12
Co    -0.05980081   -1.97150858    1.76667494      13
Cr     0.02217258   -1.77467286   -1.72973168      14
Co    -1.74255399   -0.00224148    1.67431181      15
Co    -1.71839390    1.79964000   -0.00230606      16
Cr    -1.67339851   -1.72744569    0.05640757      17
Ni     0.73189178    0.03481692    0.87899346      18
          18
Lattice="  24.8920   0.0000   0.0000   0.0000  24.8920   0.0000   0.0000   0.0000  24.8920 " ConfE="      -5949.6259" DelE="         -0.1613"
Co     3.54398820    0.05044868   -0.05140420       1
Ni     0.01907078   -0.00162221   -3.62110717       2
Co    -0.03663435    0.01340610    3.51923968       3
Cr    -0.02256070    3.60290582    0.01723989       4
Cr    -0.02234671   -3.56407150    0.00853089       5
Co    -3.55049012    0.03112548   -0.04825866       6
Ni     1.72579529    1.77211898   -0.05104306       7
Ni     1.73261707    0.00571424   -1.79755195       8
Ni     0.00270618    1.78977373   -1.79405700       9
Cr    -0.08301399    1.69125682    1.65089862      10
Co     1.68864298   -1.73230870   -0.02547019      11
Ni    -1.71282300   -0.02373322   -1.75298896      12
Co    -0.04674366   -1.73397480    1.65609205      13
Cr     0.01021526   -1.77103127   -1.75772379      14
Co    -1.72857599    0.03032916    1.67353418      15
Co    -1.73082140    1.79407241   -0.02177847      16
Cr    -1.72477217   -1.77802674    0.01582063      17
Ni     1.72893377    0.03097647    1.70590663      18
