          18
Lattice="  24.8920   0.0000   0.0000   0.0000  24.8920   0.0000   0.0000   0.0000  24.8920 " ConfE="      -5925.3596" DelE="          0.0000"
Ni    -0.00060926   -0.08822430    3.50309766       1
Ni    -3.58482010   -0.07970106    0.02609893       2
Co    -0.04512413    3.36118102    0.00316760       3
Cr     3.52551997   -0.07739055   -0.09902178       4
Co    -0.02626309   -3.70230878   -0.05131452       5
Cr    -0.05289090   -0.06831752   -3.52286386       6
Ni     1.77968058   -0.08715165    1.69739035       7
Ni    -0.00041737   -1.89210680    1.72101034       8
Ni    -0.03463707   -1.87005137   -1.77539159       9
Cr     1.81399071    1.70137924   -0.07211086      10
Cr    -1.72994896    0.10166910    1.76065482      11
Ni    -1.78487209   -1.83238876    0.03018873      12
Cr    -1.80407599    1.69703405   -0.04300710      13
Cr     1.77969334   -1.90228461   -0.09632722      14
Co     1.73909320   -0.07166076   -1.79770196      15
Cr    -0.06552155    1.75356941   -1.86871671      16
Co    -1.80195977   -0.05915158   -1.77100951      17
Ni     0.00000000    0.00000000    0.00000000      18
          18
Lattice="  24.8920   0.0000   0.0000   0.0000  24.8920   0.0000   0.0000   0.0000  24.8920 " ConfE="      -5924.8787" DelE="          0.4809"
Ni     0.00140564   -0.07929261    3.46200223       1
Ni    -3.64649905   -0.09702107    0.00239021       2
Co    -0.03360891    3.38315782   -0.02379298       3
Cr     3.58219147   -0.12068832   -0.10776142       4
Co    -0.02715609   -3.71753076   -0.04814535       5
Cr    -0.05553634   -0.05756878   -3.52069097       6
Ni     1.88278486   -0.15372808    1.69944240       7
Ni     0.00316274   -1.85371336    1.68141540       8
Ni    -0.03941415   -1.83671091   -1.73857875       9
Cr     1.97410194    1.69363033   -0.11170530      10
Cr    -1.90249057   -0.04092157    1.80038468      11
Ni    -1.79045645   -1.82176577    0.02594222      12
Cr    -1.99729625    1.72846692   -0.11581132      13
Cr     1.77637781   -1.88154865   -0.10229398      14
Co     1.70132141   -0.05543157   -1.72074898      15
Cr    -0.08421463    1.70217156   -1.78983849      16
Co    -1.78109141   -0.03040617   -1.70823798      17
Ni    -0.03073558    0.91123905    0.78624840      18
          18
Lattice="  24.8920   0.0000   0.0000   0.0000  24.8920   0.0000   0.0000   0.0000  24.8920 " ConfE="      -5925.3794" DelE="         -0.0198"
Ni     0.00046830   -0.12553880    3.52676800       1
Ni    -3.61641289   -0.09379552    0.01155314       2
Co    -0.04497691    3.46326767   -0.04729782       3
Cr     3.55698205   -0.09943334   -0.09677591       4
Co    -0.02256083   -3.73243860   -0.05447948       5
Cr    -0.05480630   -0.07654150   -3.53163988       6
Ni     1.77050327   -0.14659628    1.65554171       7
Ni     0.00568474   -1.88647083    1.68877512       8
Ni    -0.03464590   -1.86588492   -1.76061129       9
Cr     1.74441162    1.63349026   -0.11178422      10
Cr    -1.78419902   -0.04929535    1.72384038      11
Ni    -1.77188180   -1.83894459    0.01293673      12
Cr    -1.77145817    1.61313563   -0.06728695      13
Cr     1.77443423   -1.90666881   -0.11698238      14
Co     1.68931307   -0.07848863   -1.72888690      15
Cr    -0.05830186    1.70491098   -1.79163705      16
Co    -1.76522306   -0.05265115   -1.72072584      17
Ni     0.00284895    1.61397718    1.67398549      18
