          19
Lattice="  24.8920   0.0000   0.0000   0.0000  24.8920   0.0000   0.0000   0.0000  24.8920 " ConfE="      -5937.8859" DelE="          0.0000"
Ni     2.41319734   -2.45216287   -0.03452293       1
Ni     3.45794794    0.01069828   -0.00726628       2
Cr    -0.04809617    0.07880777    3.54443241       3
Co     0.02371580   -3.48933085   -0.02936215       4
Co    -0.04873508    0.09253144   -3.56711837       5
Cr    -3.63217566    0.06331227   -0.03780070       6
Co    -0.08084723    3.66184779   -0.03291665       7
Ni     1.72740682    0.06788779    1.75957747       8
Ni    -0.03978976   -1.72429733    1.77400913       9
Co     1.71941230    0.06743397   -1.79230095      10
Ni    -1.82900994   -1.75212594   -0.01357918      11
Co    -0.03042802   -1.74383482   -1.81665792      12
Ni    -1.82156958    0.03791623   -1.76729928      13
Cr     1.69390517    1.88462040   -0.01351093      14
Cr    -0.06752760    1.85118811    1.72708151      15
Cr    -1.85947752    0.03818961    1.72583781      16
Cr    -0.09135186    1.83174925   -1.74358775      17
Co    -1.84905071    1.85051963    0.00517004      18
Ni     0.00000000    0.00000000    0.00000000      19
          19
Lattice="  24.8920   0.0000   0.0000   0.0000  24.8920   0.0000   0.0000   0.0000  24.8920 " ConfE="      -5937.0711" DelE="          0.8148"
Ni     2.77755675   -2.87003453    0.00124390       1
Ni     3.42751939    0.01956509   -0.00263319       2
Cr    -0.05336458    0.09598860    3.60667778       3
Co     0.06207852   -3.47259475   -0.02269546       4
Co    -0.08219343    0.09309315   -3.62251559       5
Cr    -3.62637621    0.04297449   -0.02393794       6
Co    -0.07642199    3.67823686   -0.03299005       7
Ni     1.74448400    0.12056352    1.90258433       8
Ni    -0.07259055   -1.73525357    1.89813966       9
Co     1.74129226    0.13416649   -1.97079214      10
Ni    -1.73866458   -1.72171575   -0.01015919      11
Co    -0.09226679   -1.78629753   -1.95291432      12
Ni    -1.80369407    0.02320749   -1.75829294      13
Cr     1.65674667    1.78163132   -0.00227378      14
Cr    -0.06932580    1.80258101    1.67138056      15
Cr    -1.79294982    0.04239260    1.69322762      16
Cr    -0.08614234    1.74751016   -1.63364250      17
Co    -1.82017544    1.81307279    0.01003148      18
Ni     0.93262872   -0.87895004   -0.03265988      19
          19
Lattice="  24.8920   0.0000   0.0000   0.0000  24.8920   0.0000   0.0000   0.0000  24.8920 " ConfE="      -5938.2759" DelE="         -0.3900"
Ni     3.50641876   -3.45266291    0.00202315       1
Ni     3.52742892    0.09269132   -0.00970825       2
Cr    -0.04772236    0.07677857    3.55004042       3
Co    -0.02157845   -3.53693379   -0.01160163       4
Co    -0.06323289    0.09973734   -3.57537520       5
Cr    -3.66979330    0.06439906   -0.02942378       6
Co    -0.09005947    3.69575937   -0.03306238       7
Ni     1.68181846    0.10852983    1.69569792       8
Ni    -0.05668076   -1.67466884    1.71993044       9
Co     1.66059966    0.10946485   -1.75067949      10
Ni    -1.82023844   -1.72349350   -0.01515448      11
Co    -0.07468639   -1.71810493   -1.80116911      12
Ni    -1.82328011    0.04110778   -1.73740560      13
Cr     1.66863731    1.85758291   -0.02096977      14
Cr    -0.09563398    1.82886951    1.65129382      15
Cr    -1.84257466    0.05881969    1.69321510      16
Cr    -0.10541170    1.76251643   -1.61043156      17
Co    -1.85103289    1.83863248    0.01257513      18
Ni     1.70792816   -1.69448545   -0.03033684      19
