          18
Lattice="  24.8920   0.0000   0.0000   0.0000  24.8920   0.0000   0.0000   0.0000  24.8920 " ConfE="      -5935.2352" DelE="          0.0000"
Ni    -3.48702628    0.03473086   -0.01366781       1
Co     0.00020396    0.00188785   -3.51802719       2
Ni     3.60572454   -0.03017672    0.00061592       3
Ni     0.03553196    0.02211253    3.57361534       4
Ni     0.01960509    3.53381934    0.02256639       5
Ni     0.00683769   -3.54006578    0.00507180       6
Ni    -1.74149489    1.76776039    0.00954283       7
Cr    -1.73629100   -1.68092722   -0.07180060       8
Co     0.03021565    1.72761958   -1.75871317       9
Co    -0.09684613   -1.70474943   -1.72568430      10
Ni    -1.73416881    0.01704996    1.81201080      11
Cr     1.76065923   -0.00821758   -1.75060090      12
Co     1.79429601    0.00469236    1.76256521      13
Co     0.05783350    1.79319476    1.78809373      14
Co    -0.00194975   -1.79735325    1.78796717      15
Cr     1.79275951    1.73130547    0.01893920      16
Ni     1.77358356   -1.76595104    0.02066315      17
Co     0.00000000    0.00000000    0.00000000      18
          18
Lattice="  24.8920   0.0000   0.0000   0.0000  24.8920   0.0000   0.0000   0.0000  24.8920 " ConfE="      -5933.9937" DelE="          1.2415"
Ni    -3.45621606    0.05022882   -0.00145620       1
Co    -0.00482800    0.00739396   -3.41805544       2
Ni     3.55532672   -0.03928005    0.02235618       3
Ni     0.04593425    0.02499055    3.52271715       4
Ni     0.01416014    3.62873662    0.02101520       5
Ni     0.01067531   -3.62250674    0.00603000       6
Ni    -1.79194129    1.92567336    0.07320925       7
Cr    -1.75991795   -1.82221261    0.02606523       8
Co     0.06347005    1.90726323   -1.75474891       9
Co     0.02870367   -1.90676875   -1.79381183      10
Ni    -1.67541099    0.03823389    1.75317376      11
Cr     1.65377995   -0.04749893   -1.61437595      12
Co     1.15857452    0.12390118    1.13093924      13
Co    -0.04039655    1.97081073    1.81202902      14
Co    -0.02543921   -1.88323368    1.77747358      15
Cr     1.77646990    1.86437067   -0.07908400      16
Ni     1.76992783   -1.88366211    0.01915660      17
Co    -0.78363006   -0.01538026   -0.77417694      18
          18
Lattice="  24.8920   0.0000   0.0000   0.0000  24.8920   0.0000   0.0000   0.0000  24.8920 " ConfE="      -5935.5496" DelE="         -0.3144"
Ni    -3.52731942    0.04174752    0.02984565       1
Co     0.01469981    0.00241983   -3.54306698       2
Ni     3.57109340   -0.02231868    0.03046022       3
Ni     0.05841980    0.02325861    3.55639344       4
Ni     0.02747142    3.54003015    0.03559480       5
Ni     0.02405227   -3.53502856    0.01993487       6
Ni    -1.73164729    1.78924324    0.04877179       7
Cr    -1.72752316   -1.70071661   -0.01637935       8
Co     0.05414725    1.75954930   -1.75382390       9
Co    -0.00848566   -1.73939532   -1.74303270      10
Ni    -1.73714816    0.02426336    1.80366178      11
Cr     1.72640007   -0.00977641   -1.77988279      12
Co     0.08281487    0.01904756    0.05852695      13
Co     0.13367139    1.76761344    1.78496712      14
Co     0.01465806   -1.79132147    1.80132767      15
Cr     1.78802615    1.71649522    0.05229711      16
Ni     1.78997133   -1.73879183    0.07881595      17
Co    -1.73723696   -0.00172270   -1.72043702      18
