          18
Lattice="  24.8920   0.0000   0.0000   0.0000  24.8920   0.0000   0.0000   0.0000  24.8920 " ConfE="      -5949.7929" DelE="          0.0000"
Ni    -0.00198024   -3.47889015    0.01109259       1
Ni    -3.55489656    0.03631170   -0.02400295       2
Ni     0.00061603    3.55883487    0.01582921       3
Cr     0.02063241   -0.10274386    3.45160830       4
Cr     3.53224941    0.01516789   -0.02178384       5
Cr     0.01740459    0.04622941   -3.56640946       6
Ni     1.79235523   -1.74527672    0.01792547       7
Ni    -0.00968779   -1.76785768   -1.80314289       8
Ni     1.75610155    0.02972293   -1.78351487       9
Co     1.75854255    0.00074477    1.76991439      10
Co    -1.80049938   -1.69510838   -0.00508221      11
Ni    -0.02501826    1.81044587   -1.79567331      12
Co    -1.71824180   -0.01572688    1.79042473      13
Ni    -1.77842060    1.78290244   -0.03926628      14
Cr    -1.78350774   -0.05035521   -1.83356802      15
Cr     1.81611178    1.78558724   -0.04488291      16
Cr    -0.04930966    1.69243450    1.81367297      17
Ni     0.00000000    0.00000000    0.00000000      18
          18
Lattice="  24.8920   0.0000   0.0000   0.0000  24.8920   0.0000   0.0000   0.0000  24.8920 " ConfE="      -5949.1184" DelE="          0.6744"
Ni     0.00600620   -3.41957612    0.03709952       1
Ni    -3.62208748    0.04948525   -0.04915589       2
Ni    -0.00538902    3.56139489    0.01860344       3
Cr     0.00041583   -0.12657083    3.40349549       4
Cr     3.58091105    0.06374535   -0.04475732       5
Cr     0.01969129    0.03928271   -3.56757741       6
Ni     1.93525881   -1.76234944   -0.01830561       7
Ni    -0.00006690   -1.71320317   -1.72535250       8
Ni     1.75527802    0.03106408   -1.75107567       9
Co     1.99261769    0.00584765    1.81552450      10
Co    -1.92121871   -1.71328324   -0.05389282      11
Ni    -0.03147562    1.75499541   -1.74577551      12
Co    -1.98425653   -0.01765786    1.80062970      13
Ni    -1.77772052    1.74153627   -0.02003650      14
Cr    -1.77822396   -0.07200215   -1.77949123      15
Cr     1.72973609    1.68402045    0.02333201      16
Cr    -0.02702161    1.62824125    1.75042923      17
Ni     0.00489418   -0.67039935    0.77479502      18
          18
Lattice="  24.8920   0.0000   0.0000   0.0000  24.8920   0.0000   0.0000   0.0000  24.8920 " ConfE="      -5949.7640" DelE="          0.0289"
Ni    -0.00072136   -3.52912054   -0.02656746       1
Ni    -3.57390674    0.04184716   -0.02734424       2
Ni    -0.00319799    3.57941512    0.01346212       3
Cr     0.03874721   -0.01906205    3.55962148       4
Cr     3.55987059    0.04239373   -0.03809637       5
Cr     0.01476259    0.04681441   -3.57764172       6
Ni     1.79194809   -1.71911108   -0.01430408       7
Ni    -0.01412510   -1.73670374   -1.77498595       8
Ni     1.72091686    0.04087955   -1.75086171       9
Co     1.75068346    0.05883713    1.71314917      10
Co    -1.77563569   -1.63942663   -0.03981617      11
Ni    -0.03258950    1.78139346   -1.76736907      12
Co    -1.73886496    0.04580555    1.75484480      13
Ni    -1.75450225    1.76004153   -0.04114322      14
Cr    -1.77158412   -0.05275628   -1.82022091      15
Cr     1.77546986    1.76861889   -0.02478491      16
Cr    -0.03475915    1.63203693    1.74714952      17
Ni    -0.00494266   -1.69171360    1.71434313      18
