          18
Lattice="  24.8920   0.0000   0.0000   0.0000  24.8920   0.0000   0.0000   0.0000  24.8920 " ConfE="      -5938.0965" DelE="          0.0000"
Ni     0.00970787    0.04370936   -3.35574101       1
Ni    -3.54690609    0.10455198    0.11112000       2
Ni    -0.01606001    0.07923665    3.66594237       3
Cr     0.03214938   -3.33744751    0.04850754       4
Cr     3.54868170    0.08536204    0.08148318       5
Cr     0.07658992    3.62021841    0.08111136       6
Co     1.75699695    0.06513493   -1.62039212       7
Co     1.75623514   -1.67403044    0.06686430       8
Co    -1.77790051    0.10614096   -1.62475787       9
Ni    -1.77105341    1.87663120    0.11907552      10
Ni    -0.00996922    1.83466260    1.86991308      11
Co    -1.72628708   -1.68776282    0.04295848      12
Co     0.02643932    1.89982808   -1.59669844      13
Co     1.78010824    1.83474253    0.12046439      14
Cr     1.74902219    0.08778441    1.81921908      15
Cr    -0.00216533   -1.69171984    1.84680795      16
Co    -1.70029755    0.01890165    1.83084553      17
Cr     0.00000000    0.00000000    0.00000000      18
          18
Lattice="  24.8920   0.0000   0.0000   0.0000  24.8920   0.0000   0.0000   0.0000  24.8920 " ConfE="      -5937.4858" DelE="          0.6107"
Ni     0.00943477    0.08294893   -3.36343075       1
Ni    -3.58985540    0.11207453    0.12224545       2
Ni    -0.02246020    0.07499561    3.65784203       3
Cr     0.03046225   -3.39590134    0.04432609       4
Cr     3.62743240    0.09768067    0.14388454       5
Cr     0.07466518    3.60079586    0.05963854       6
Co     1.89679783    0.13568950   -1.63901044       7
Co     1.84446726   -1.67587359    0.09217155       8
Co    -1.89506652    0.15471088   -1.64224232       9
Ni    -1.78495790    1.86295011    0.11752573      10
Ni    -0.01816200    1.82250990    1.84023331      11
Co    -1.83755098   -1.69099309    0.07588730      12
Co     0.01808553    1.81888223   -1.55313260      13
Co     1.77011936    1.78938195    0.12586750      14
Cr     1.64827185    0.06629474    1.69523261      15
Cr    -0.02846689   -1.66684308    1.76758664      16
Co    -1.66095293   -0.00679806    1.78646693      17
Cr    -0.00338408   -0.80418061   -0.93916759      18
          18
Lattice="  24.8920   0.0000   0.0000   0.0000  24.8920   0.0000   0.0000   0.0000  24.8920 " ConfE="      -5937.7266" DelE="          0.3699"
Ni     0.00255630    0.09991805   -3.41634971       1
Ni    -3.56991975    0.11501149    0.11413872       2
Ni    -0.01153848    0.08356506    3.66554090       3
Cr     0.03690729   -3.44777416    0.12495429       4
Cr     3.58481717    0.10129106    0.11047954       5
Cr     0.08391105    3.60319360    0.05569795       6
Co     1.73352949    0.08729228   -1.59972003       7
Co     1.77337026   -1.64201340    0.12579777       8
Co    -1.76363594    0.11539863   -1.60996511       9
Ni    -1.77765298    1.88127762    0.11792199      10
Ni    -0.00283441    1.82498042    1.84299314      11
Co    -1.76906692   -1.67463570    0.08568940      12
Co     0.02549897    1.87897919   -1.56793316      13
Co     1.78961205    1.81221976    0.12689197      14
Cr     1.75114586    0.10832561    1.80944607      15
Cr    -0.01466817   -1.60768310    1.72828889      16
Co    -1.66106137    0.01027727    1.80970231      17
Cr    -0.00419896   -1.48482805   -1.43824943      18
