          18
Lattice="  24.8920   0.0000   0.0000   0.0000  24.8920   0.0000   0.0000   0.0000  24.8920 " ConfE="      -5938.0694" DelE="          0.0000"
Cr    -0.02097671    0.02928785   -3.50502904       1
Cr    -3.41330199    0.04326319    0.03351595       2
Ni     0.04877791    0.00300556    3.59556772       3
Cr     3.58693868    0.04798404   -0.03810415       4
Ni     0.03375645   -3.55652867    0.02808778       5
Cr     0.00457052    3.50171204    0.01434963       6
Cr    -0.02824733   -1.70048131   -1.76477599       7
Co    -0.00088728    1.72204073   -1.78147437       8
Ni    -1.72430011   -1.75033843    0.02925809       9
Co    -1.77948829    1.71057444   -0.03568059      10
Ni     1.79208233   -0.03456595   -1.77269723      11
Co    -1.74638979   -0.01126154    1.81815123      12
Co     1.86844679    0.03160719    1.77602273      13
Cr     1.78061836   -1.75827339    0.02357140      14
Ni     1.77266260    1.78337090   -0.00708692      15
Cr     0.03487158   -1.72060205    1.80698205      16
Co     0.03420656    1.76791479    1.78964403      17
Co     0.00000000    0.00000000    0.00000000      18
          18
Lattice="  24.8920   0.0000   0.0000   0.0000  24.8920   0.0000   0.0000   0.0000  24.8920 " ConfE="      -5937.5810" DelE="          0.4884"
Cr    -0.07725631    0.02738684   -3.47166789       1
Cr    -3.33155360    0.02059462    0.00214449       2
Ni     0.04520767    0.00629718    3.61127409       3
Cr     3.58173051    0.03393662   -0.06901720       4
Ni     0.02753826   -3.59974526    0.03392757       5
Cr     0.02788283    3.57124654    0.01297919       6
Cr    -0.01913165   -1.84645839   -1.84037885       7
Co     0.04567646    1.89965929   -1.82468578       8
Ni    -1.77748875   -1.91233951    0.07773662       9
Co    -1.76076091    1.87099895    0.00756191      10
Ni     1.71312418   -0.01307969   -1.77791558      11
Co    -1.65904340   -0.01534479    1.70702069      12
Co     1.83511192    0.02935768    1.74995880      13
Cr     1.56911965   -1.64075834   -0.00363176      14
Ni     1.71608006    1.75670675   -0.01899382      15
Cr    -0.00470578   -1.67695674    1.77475304      16
Co     0.04550013    1.77461672    1.78225481      17
Co    -0.63810438   -0.04405772   -0.72872447      18
          18
Lattice="  24.8920   0.0000   0.0000   0.0000  24.8920   0.0000   0.0000   0.0000  24.8920 " ConfE="      -5938.1680" DelE="         -0.0986"
Cr     0.00949803    0.03261699   -3.56966903       1
Cr    -3.43434728    0.03437974    0.05315840       2
Ni     0.05286004    0.00376949    3.61265972       3
Cr     3.60961524    0.04557743   -0.04601171       4
Ni     0.03613178   -3.57654383    0.03601727       5
Cr     0.01409434    3.54569801    0.02293799       6
Cr    -0.01285980   -1.69192605   -1.71815856       7
Co     0.02500963    1.76047112   -1.75755542       8
Ni    -1.69518909   -1.75020421    0.04548403       9
Co    -1.72874736    1.73010522   -0.00232321      10
Ni     1.73192950   -0.02231776   -1.73457809      11
Co    -1.67314613   -0.01344313    1.76137249      12
Co     1.86243759    0.02555661    1.76416556      13
Cr     1.75253931   -1.73116758    0.03224645      14
Ni     1.74404953    1.76090702    0.00106537      15
Cr     0.04557255   -1.67084538    1.76436079      16
Co     0.04862763    1.74893091    1.77168444      17
Co    -1.66111323   -0.01373096   -1.74653067      18
