          18
Lattice="  24.8920   0.0000   0.0000   0.0000  24.8920   0.0000   0.0000   0.0000  24.8920 " ConfE="      -5937.9460" DelE="          0.0000"
Ni    -0.03100207   -0.01149285   -3.50195216       1
Ni    -0.07135645    3.55200682    0.05438167       2
Ni    -0.03568252   -3.51099621    0.03550289       3
Cr     3.48867610    0.06173040    0.01566555       4
Cr    -0.09803914    0.03582494    3.63296215       5
Co    -3.65321169    0.03652174    0.01477873       6
Ni    -0.05893117    1.76904819   -1.74885296       7
Ni    -0.03512918   -1.70687333   -1.75732762       8
Ni     1.71909227    1.75716254    0.02058626       9
Ni    -1.80846021    0.02005711    1.81302136      10
Ni     1.70942907    0.03136948    1.82605253      11
Ni    -0.05314044    1.78761030    1.82926978      12
Ni    -0.04727455   -1.74081442    1.82660732      13
Ni    -1.82408187    1.76681615    0.00680671      14
Ni    -1.82882166   -1.71627113    0.01250308      15
Co     1.77247870   -1.75665659    0.02835701      16
Co    -1.89883337    0.05571715   -1.81264830      17
Ni     0.00000000    0.00000000    0.00000000      18
          18
Lattice="  24.8920   0.0000   0.0000   0.0000  24.8920   0.0000   0.0000   0.0000  24.8920 " ConfE="      -5937.4411" DelE="          0.5049"
Ni    -0.02137623   -0.00910965   -3.46140238       1
Ni    -0.09529973    3.60409720    0.06223965       2
Ni    -0.05156765   -3.54785428    0.03741363       3
Cr     3.38128793    0.07215309   -0.04645849       4
Cr    -0.09696375    0.04113230    3.64449030       5
Co    -3.66497779    0.03857333    0.01422779       6
Ni    -0.09019801    1.87092940   -1.76190112       7
Ni    -0.07484199   -1.81826657   -1.79808062       8
Ni     1.72653703    1.94201376    0.08658887       9
Ni    -1.78224669    0.02870453    1.79008365      10
Ni     1.69632112    0.03804521    1.77328914      11
Ni    -0.05380389    1.79116775    1.81409643      12
Ni    -0.03578710   -1.71309702    1.78386100      13
Ni    -1.80659454    1.76085459    0.00449253      14
Ni    -1.78569161   -1.68506565   -0.00219548      15
Co     1.81980663   -1.95719136    0.10171200      16
Co    -1.86831358    0.06265007   -1.79628535      17
Ni     0.67031575   -0.02377782   -0.55240867      18
          18
Lattice="  24.8920   0.0000   0.0000   0.0000  24.8920   0.0000   0.0000   0.0000  24.8920 " ConfE="      -5938.4048" DelE="         -0.4588"
Ni    -0.05767630   -0.01760691   -3.53420233       1
Ni    -0.07816889    3.56210321    0.05906270       2
Ni    -0.04396828   -3.51898547    0.03803381       3
Cr     3.54716567    0.06871237    0.07565586       4
Cr    -0.10246862    0.03584992    3.64910818       5
Co    -3.67353829    0.03759040    0.01625986       6
Ni    -0.08160492    1.76113794   -1.72315478       7
Ni    -0.07554474   -1.69349748   -1.72349986       8
Ni     1.69217766    1.76164341    0.05409788       9
Ni    -1.80026654    0.02240823    1.80691956      10
Ni     1.68601317    0.02821652    1.79268056      11
Ni    -0.05946857    1.76739976    1.81657436      12
Ni    -0.05048196   -1.71550380    1.80458715      13
Ni    -1.81413849    1.74107002    0.00728897      14
Ni    -1.81162219   -1.68053941    0.01153114      15
Co     1.75538047   -1.76682138    0.06004346      16
Co    -1.89192366    0.06609102   -1.81818967      17
Ni     1.69411856    0.01152649   -1.68328544      18
