          18
Lattice="  24.8920   0.0000   0.0000   0.0000  24.8920   0.0000   0.0000   0.0000  24.8920 " ConfE="      -5933.7655" DelE="          0.0000"
Co     0.00223957   -0.01386654    3.45194647       1
Cr     3.36487386    0.00229355   -0.02754955       2
Cr    -0.12281936   -0.01461896   -3.63057728       3
Ni    -3.67484050    0.01659525   -0.03028174       4
Ni    -0.08017123   -3.54569716   -0.05962564       5
Co    -0.13763909    3.56826209   -0.06282556       6
Ni    -0.08276514   -1.75416206    1.69430441       7
Ni    -0.06160060    1.78735140    1.74070662       8
Cr     1.70754474   -1.73696129   -0.06496466       9
Ni     1.67974815    1.75500919   -0.03046489      10
Co    -1.86216025    0.01034692    1.72278825      11
Cr     1.65686338   -0.00212378   -1.90169571      12
Ni    -1.87883189   -0.00581484   -1.80649471      13
Cr    -1.88722927   -1.71137498   -0.02459751      14
Cr    -1.80127142    1.67656440    0.01335446      15
Ni    -0.10929892   -1.77745726   -1.80869661      16
Co    -0.11582820    1.76356727   -1.83456883      17
Cr     0.00000000    0.00000000    0.00000000      18
          18
Lattice="  24.8920   0.0000   0.0000   0.0000  24.8920   0.0000   0.0000   0.0000  24.8920 " ConfE="      -5933.2549" DelE="          0.5106"
Co    -0.05888203   -0.02075310    3.44892632       1
Cr     3.42401132    0.02069981   -0.05767484       2
Cr    -0.09621167   -0.02007793   -3.58928650       3
Ni    -3.67624483    0.01549738   -0.02827420       4
Ni    -0.09458827   -3.58709537   -0.05783186       5
Co    -0.14470673    3.63674676   -0.06726191       6
Ni    -0.17833592   -1.91443204    1.75742189       7
Ni    -0.11061510    1.89583904    1.74542121       8
Cr     1.71300378   -1.84568084   -0.07858016       9
Ni     1.68233487    1.85015338   -0.07181251      10
Co    -1.77722545   -0.00376214    1.66621995      11
Cr     1.65283826    0.00893487   -1.82014372      12
Ni    -1.86618607   -0.01103668   -1.78969883      13
Cr    -1.83497788   -1.66299939    0.00899065      14
Cr    -1.71184955    1.59528993    0.00891305      15
Ni    -0.09821495   -1.72988403   -1.72242889      16
Co    -0.11046391    1.73866094   -1.76709843      17
Cr     0.90429534   -0.05348201    0.98642906      18
          18
Lattice="  24.8920   0.0000   0.0000   0.0000  24.8920   0.0000   0.0000   0.0000  24.8920 " ConfE="      -5933.7889" DelE="         -0.0233"
Co    -0.07096612   -0.01318536    3.49887174       1
Cr     3.48497154    0.01235328   -0.05364293       2
Cr    -0.11921697   -0.02036099   -3.61689396       3
Ni    -3.71179665    0.01728170   -0.03787443       4
Ni    -0.09311381   -3.55768930   -0.05660102       5
Co    -0.14653269    3.59296387   -0.06781641       6
Ni    -0.11989025   -1.73819959    1.66327247       7
Ni    -0.09404213    1.78123388    1.70386448       8
Cr     1.68227173   -1.70901518   -0.07775377       9
Ni     1.64623340    1.73021327   -0.06527378      10
Co    -1.82865391    0.01521990    1.65435121      11
Cr     1.63995099   -0.01772164   -1.84140683      12
Ni    -1.89102235   -0.00717999   -1.79598898      13
Cr    -1.90895905   -1.68375487   -0.00912467      14
Cr    -1.79844041    1.64157634   -0.01498371      15
Ni    -0.12827703   -1.73326107   -1.75010914      16
Co    -0.13610277    1.74555158   -1.81885138      17
Cr     1.64849071   -0.00795155    1.66471377      18
