          18
Lattice="  24.8920   0.0000   0.0000   0.0000  24.8920   0.0000   0.0000   0.0000  24.8920 " ConfE="      -5938.0444" DelE="          0.0000"
Ni    -3.52050157   -0.01308640   -0.03151874       1
Co    -0.01910694   -0.04007853    3.51397775       2
Cr     3.56351519   -0.00922068   -0.05421356       3
Ni     0.02342552   -0.01517900   -3.60889237       4
Cr     0.03384986   -3.58238423    0.04703174       5
Cr     0.07049543    3.54699321   -0.04315609       6
Ni    -1.70868325   -1.74520699    0.00106427       7
Ni    -1.73899567    1.76683587   -0.03643008       8
Cr    -0.01812897   -1.71535034    1.86708480       9
Ni    -0.04077906    1.75310527    1.77733191      10
Ni    -1.74860888   -0.01170687   -1.85000209      11
Ni     1.80617400    0.00125194    1.76092675      12
Cr     1.77260844    0.02416493   -1.84881743      13
Ni     0.02631035   -1.76952702   -1.80066174      14
Co     0.03250493    1.79789968   -1.81453300      15
Cr     1.74539177   -1.78075373    0.00911706      16
Ni     1.79171728    1.75116187   -0.01900556      17
Ni     0.00000000    0.00000000    0.00000000      18
          18
Lattice="  24.8920   0.0000   0.0000   0.0000  24.8920   0.0000   0.0000   0.0000  24.8920 " ConfE="      -5937.3211" DelE="          0.7232"
Ni    -3.42535206   -0.02531613   -0.00184898       1
Co    -0.02027473   -0.03167576    3.50480786       2
Cr     3.56868615   -0.00497931   -0.04428897       3
Ni     0.00928030   -0.02885875   -3.60799141       4
Cr     0.06003571   -3.65174504    0.01425248       5
Cr     0.11950261    3.62213464   -0.06830996       6
Ni    -1.74178503   -1.94319353   -0.07811688       7
Ni    -1.72263786    1.87859008   -0.04698562       8
Cr     0.06714393   -1.96666158    1.87486766       9
Ni     0.00201169    1.92198503    1.80621735      10
Ni    -1.70339718   -0.01943436   -1.76881039      11
Ni     1.72764553    0.00552323    1.72856180      12
Cr     1.68121442    0.02339956   -1.77284146      13
Ni     0.01823787   -1.79184993   -1.80244858      14
Co     0.03903876    1.77732821   -1.78307360      15
Cr     1.65691219   -1.70399812   -0.01537043      16
Ni     1.76537500    1.74568944   -0.00897849      17
Ni    -0.69285535   -0.09062006    0.80528799      18
          18
Lattice="  24.8920   0.0000   0.0000   0.0000  24.8920   0.0000   0.0000   0.0000  24.8920 " ConfE="      -5938.1028" DelE="         -0.0584"
Ni    -3.53779421   -0.01556151   -0.04004892       1
Co     0.03909340   -0.00429268    3.58054416       2
Cr     3.58670332   -0.01188630   -0.05819813       3
Ni     0.01881978   -0.02239822   -3.62960214       4
Cr     0.04557248   -3.61440959    0.02840790       5
Cr     0.09789918    3.56705339   -0.05629044       6
Ni    -1.66474762   -1.72740962   -0.02017411       7
Ni    -1.68829879    1.74062340   -0.04962050       8
Cr     0.04957270   -1.76167569    1.82799803       9
Ni     0.00464383    1.76776203    1.76025631      10
Ni    -1.73260786   -0.00807652   -1.83034467      11
Ni     1.76677407   -0.00571822    1.72938316      12
Cr     1.73820073    0.02213248   -1.82725427      13
Ni     0.03423456   -1.74501954   -1.78020294      14
Co     0.04943468    1.76350552   -1.81004935      15
Cr     1.71302047   -1.72519378   -0.01681068      16
Ni     1.76840502    1.70607715   -0.02964998      17
Ni    -1.71685330   -0.01681002    1.76480193      18
