          18
Lattice="  24.8920   0.0000   0.0000   0.0000  24.8920   0.0000   0.0000   0.0000  24.8920 " ConfE="      -5939.4887" DelE="          0.0000"
Co     0.00417772   -0.09496102    3.58644480       1
Cr     0.00016928    3.51083250    0.05125866       2
Cr     0.00225517   -0.03535953   -3.52103539       3
Ni     0.04939588   -3.59625982    0.01407628       4
Ni     3.55733065   -0.03113366    0.02840992       5
Cr    -3.52922121   -0.08383154   -0.02110901       6
Ni     1.74486338   -0.01498796    1.77752791       7
Ni    -1.73775304   -0.05206431    1.78669301       8
Cr     1.79629376    1.74246224    0.01017890       9
Ni    -1.72753534    1.74224647    0.06543080      10
Ni     0.02944184   -1.83147488    1.78660873      11
Ni     0.00333147    1.76086696   -1.77293675      12
Ni     0.02418863   -1.82308192   -1.75284926      13
Co     1.82859612   -1.81857494   -0.02413410      14
Co    -1.78150829   -1.83780271   -0.00580002      15
Ni     1.78957778   -0.01840908   -1.75436445      16
Cr    -1.76926050   -0.04599032   -1.75508504      17
Co     0.00000000    0.00000000    0.00000000      18
          18
Lattice="  24.8920   0.0000   0.0000   0.0000  24.8920   0.0000   0.0000   0.0000  24.8920 " ConfE="      -5938.9313" DelE="          0.5574"
Co     0.01502757   -0.09925208    3.58542241       1
Cr    -0.00154215    3.48453148    0.06064249       2
Cr     0.00701580   -0.02650653   -3.52735644       3
Ni     0.04643554   -3.59570934    0.02493829       4
Ni     3.59274559   -0.03718181    0.03557699       5
Cr    -3.60863641   -0.09549840   -0.03679656       6
Ni     1.88309366   -0.07714788    1.84188303       7
Ni    -1.80581920   -0.05718734    1.76995697       8
Cr     1.96778986    1.81645487   -0.02096618       9
Ni    -1.92858676    1.80138775   -0.02010188      10
Ni     0.03969167   -1.76841517    1.75756116      11
Ni    -0.01453976    1.75334644   -1.73108279      12
Ni     0.01611896   -1.76479263   -1.69465762      13
Co     1.84954179   -1.82632722   -0.00897436      14
Co    -1.79107106   -1.81055356   -0.00241800      15
Ni     1.75261633    0.00524879   -1.67717644      16
Cr    -1.77000123   -0.03827525   -1.71557557      17
Co     0.10673013    0.85232764    0.62035860      18
          18
Lattice="  24.8920   0.0000   0.0000   0.0000  24.8920   0.0000   0.0000   0.0000  24.8920 " ConfE="      -5939.6317" DelE="         -0.1430"
Co     0.01388189   -0.08784761    3.59238891       1
Cr     0.00263238    3.54586946    0.02448278       2
Cr     0.00989859   -0.03870445   -3.54914232       3
Ni     0.04450071   -3.60127559    0.01279804       4
Ni     3.58331235   -0.03559031    0.02573814       5
Cr    -3.58064599   -0.09394777   -0.03525565       6
Ni     1.76158992   -0.04400692    1.74613088       7
Ni    -1.73725788   -0.06756788    1.75551816       8
Cr     1.82155636    1.74428076    0.00246275       9
Ni    -1.74279200    1.68418283    0.01401796      10
Ni     0.02913024   -1.80124450    1.76628549      11
Ni     0.00725859    1.71343271   -1.72437665      12
Ni     0.01406525   -1.79087655   -1.72958327      13
Co     1.82757760   -1.81969603   -0.02577969      14
Co    -1.77686204   -1.81009633   -0.01666401      15
Ni     1.76286123   -0.02187604   -1.71240333      16
Cr    -1.78334644   -0.06682889   -1.76532530      17
Co     0.03946046    1.74228976    1.71878518      18
