          18
Lattice="  24.8920   0.0000   0.0000   0.0000  24.8920   0.0000   0.0000   0.0000  24.8920 " ConfE="      -5949.9130" DelE="          0.0000"
Ni     0.05698808   -3.54994589    0.01755672       1
Ni     3.60030925   -0.04170696   -0.00859173       2
Co     0.07516776   -0.05036490    3.53988480       3
Cr     0.01034597   -0.01191988   -3.55813091       4
Cr    -3.37279559   -0.06219986   -0.05532579       5
Co     0.08267918    3.56194116   -0.01630873       6
Ni     1.79258280   -1.80308003    0.03171380       7
Ni     1.79463924   -0.06517465    1.75959604       8
Ni     0.04693118   -1.79040759   -1.77995371       9
Co    -1.69086880   -1.75037415    0.05177528      10
Ni     0.10956445    1.79758349    1.76752700      11
Cr    -1.63554969   -0.03165394    1.74708929      12
Ni     1.80062101   -0.03429855   -1.77084820      13
Ni     1.84901919    1.76328717   -0.01201275      14
Co    -1.68825871    0.01940497   -1.80541682      15
Co    -1.71803868    1.77084282   -0.01075084      16
Cr     0.07722137    1.76245933   -1.77653962      17
Co     0.00000000    0.00000000    0.00000000      18
          18
Lattice="  24.8920   0.0000   0.0000   0.0000  24.8920   0.0000   0.0000   0.0000  24.8920 " ConfE="      -5949.3402" DelE="          0.5727"
Ni     0.06011479   -3.50576134    0.02714060       1
Ni     3.65682480   -0.02747774   -0.03328888       2
Co     0.10119945   -0.06001481    3.49043310       3
Cr     0.00718887   -0.01640353   -3.58126294       4
Cr    -3.43468414   -0.04831298   -0.07415146       5
Co     0.08305289    3.55186520   -0.01121603       6
Ni     1.91341634   -1.80596489    0.00661652       7
Ni     1.98947232    0.02758301    1.78465772       8
Ni     0.04266255   -1.74879682   -1.71940178       9
Co    -1.86546704   -1.79703408   -0.06032237      10
Ni     0.11626107    1.74009614    1.75530791      11
Cr    -1.82594271    0.06726003    1.81931393      12
Ni     1.78409103   -0.02801805   -1.74294138      13
Ni     1.83683673    1.74084309   -0.01464728      14
Co    -1.66504485    0.02690518   -1.79351988      15
Co    -1.66689775    1.69492210   -0.00901343      16
Cr     0.05832104    1.69938093   -1.73827955      17
Co    -0.04012946   -0.74927726    0.88464312      18
          18
Lattice="  24.8920   0.0000   0.0000   0.0000  24.8920   0.0000   0.0000   0.0000  24.8920 " ConfE="      -5950.0547" DelE="         -0.1417"
Ni     0.06132078   -3.57068042    0.00820269       1
Ni     3.62744412   -0.02889015   -0.02242574       2
Co     0.08408831    0.01549637    3.59335509       3
Cr     0.00774581   -0.01420708   -3.59108673       4
Cr    -3.41205377   -0.05327731   -0.06902766       5
Co     0.08232712    3.57288241   -0.01770475       6
Ni     1.81284178   -1.78413553    0.01548392       7
Ni     1.83308756   -0.00739104    1.73616872       8
Ni     0.04808003   -1.76107587   -1.73576311       9
Co    -1.68944718   -1.70341081    0.04113189      10
Ni     0.10390590    1.75044005    1.73814352      11
Cr    -1.66920347    0.00887513    1.75038529      12
Ni     1.76509953   -0.01941778   -1.75143926      13
Ni     1.82510696    1.75710428   -0.03316673      14
Co    -1.63493800    0.03806270   -1.76930701      15
Co    -1.67057381    1.72093215   -0.01173934      16
Cr     0.06633359    1.75280745   -1.78986122      17
Co     0.05007875   -1.72586105    1.79553149      18
