          18
Lattice="  24.8920   0.0000   0.0000   0.0000  24.8920   0.0000   0.0000   0.0000  24.8920 " ConfE="      -5944.6058" DelE="          0.0000"
Ni    -0.04361125    3.46119865   -0.03136473       1
Ni     0.03527133   -0.01715440    3.57228362       2
Ni     3.61105519   -0.00560107    0.01430949       3
Co    -3.51699811   -0.01849790    0.04544455       4
Cr     0.09282100   -0.11937554   -3.52817745       5
Cr     0.00711326   -3.56823922    0.03059168       6
Ni     0.02820840    1.72620936   -1.78901530       7
Co    -1.71873073    0.01633832   -1.75655829       8
Ni    -1.75422602   -1.79456172   -0.00582203       9
Co    -0.02237407    1.74650582    1.79656264      10
Co    -1.73360202   -0.02985707    1.79604873      11
Co     0.04560257   -1.79981058   -1.73926729      12
Co     1.80573148    1.73394400    0.05288576      13
Co     1.81419802   -0.04506108   -1.72885941      14
Cr    -0.00012238   -1.79458677    1.76287009      15
Cr     1.77410854   -1.70977418    0.03071645      16
Cr     1.74996684    0.06914418    1.74828559      17
Ni     0.00000000    0.00000000    0.00000000      18
          18
Lattice="  24.8920   0.0000   0.0000   0.0000  24.8920   0.0000   0.0000   0.0000  24.8920 " ConfE="      -5943.3595" DelE="          1.2463"
Ni    -0.02881334    3.40354311   -0.02988795       1
Ni     0.05178850   -0.02860042    3.63917502       2
Ni     3.56986971   -0.00796439    0.00391795       3
Co    -3.45985302   -0.01660621    0.03985405       4
Cr     0.10379567   -0.13154394   -3.70415238       5
Cr     0.01778300   -3.57273100    0.02777365       6
Ni     0.10217301    1.69675055   -1.93214822       7
Co    -1.68444025   -0.05006397   -1.90770853       8
Ni    -1.65938224   -1.70442631   -0.00692739       9
Co     0.07253156    1.78365896    1.99206627      10
Co    -1.73089780   -0.11096082    1.95800390      11
Co     0.04265228   -1.78002003   -1.79965530      12
Co     1.74530321    1.65373501    0.05561136      13
Co     1.81611436   -0.01200011   -1.83098589      14
Cr    -0.05334695   -1.84957125    1.85801083      15
Cr     1.15857901   -1.02693305    0.03133187      16
Cr     1.77466573    0.15767285    1.86907528      17
Ni    -0.78060829    0.83778370    0.04638481      18
          18
Lattice="  24.8920   0.0000   0.0000   0.0000  24.8920   0.0000   0.0000   0.0000  24.8920 " ConfE="      -5944.7543" DelE="         -0.1485"
Ni     0.01855832    3.52233243   -0.01712671       1
Ni     0.06561218   -0.04445840    3.55099134       2
Ni     3.57852057   -0.04010475    0.00843235       3
Co    -3.53176566   -0.03873551    0.04745178       4
Cr     0.12216224   -0.13514664   -3.46636269       5
Cr     0.04139798   -3.54262098    0.01821649       6
Ni     0.05705722    1.73402021   -1.77154004       7
Co    -1.69112493   -0.02637376   -1.74824412       8
Ni    -1.77283848   -1.79626405    0.00458187       9
Co     0.04413254    1.71101697    1.78528591      10
Co    -1.70697131   -0.06593683    1.79109089      11
Co     0.08835981   -1.80928286   -1.66790075      12
Co     1.78983636    1.75624582    0.05463872      13
Co     1.78255528   -0.06300908   -1.68389357      14
Cr     0.08551460   -1.81040807    1.70384265      15
Cr     0.10010535   -0.10449709   -0.05029973      16
Cr     1.77177211   -0.04395735    1.68228349      17
Ni    -1.72447303    1.73749088    0.00627889      18
