          18
Lattice="  24.8920   0.0000   0.0000   0.0000  24.8920   0.0000   0.0000   0.0000  24.8920 " ConfE="      -5937.0747" DelE="          0.0000"
Ni     0.01086731    0.02061839   -3.53136146       1
Ni    -0.01362995    3.54858815   -0.01307079       2
Cr     3.49769211   -0.00033512   -0.04480454       3
Cr     0.05856584   -3.46000625   -0.03528400       4
Cr    -3.53139694    0.03536144    0.00670950       5
Co    -0.01468627    0.01805110    3.55125945       6
Ni     0.02706078   -1.72129309   -1.79270305       7
Ni    -0.02017256    1.75754127   -1.79437097       8
Ni     1.75840523    1.73477089   -0.04946811       9
Ni    -1.80677590   -1.75228677   -0.01946827      10
Co     1.77833201   -1.67035594   -0.02208869      11
Co    -1.83634865    0.02804025   -1.75124408      12
Co    -0.01950372   -1.74293883    1.77646079      13
Cr    -1.68972310    0.07190107    1.74773094      14
Cr     1.74410380    0.01420701    1.78882063      15
Co    -1.81184186    1.73157309    0.00443832      16
Co     0.01234207    1.77687337    1.76961534      17
Co     0.00000000    0.00000000    0.00000000      18
          18
Lattice="  24.8920   0.0000   0.0000   0.0000  24.8920   0.0000   0.0000   0.0000  24.8920 " ConfE="      -5936.0010" DelE="          1.0737"
Ni     0.03271860    0.02017917   -3.48057853       1
Ni    -0.03893819    3.60758786   -0.00448530       2
Cr     3.44040515   -0.00362882   -0.04393797       3
Cr     0.02677737   -3.55972090   -0.02222176       4
Cr    -3.54495531    0.02144527    0.00449064       5
Co    -0.00762740    0.02108011    3.55695559       6
Ni    -0.01794076   -1.86208896   -1.80752183       7
Ni    -0.04136573    1.88471349   -1.80580058       8
Ni     1.81110674    2.00300115    0.02767586       9
Ni    -1.75990733   -1.73358793   -0.01769209      10
Co     1.73324542   -1.95455075    0.09938643      11
Co    -1.74182452    0.02764868   -1.71981085      12
Co    -0.02892160   -1.72330311    1.76808835      13
Cr    -1.59446736    0.08105593    1.68061546      14
Cr     1.68161163    0.02236330    1.67648133      15
Co    -1.76531857    1.70478548    0.00267280      16
Co     0.02310018    1.74303218    1.72915110      17
Co     1.08112054   -0.00142781   -0.88140989      18
          18
Lattice="  24.8920   0.0000   0.0000   0.0000  24.8920   0.0000   0.0000   0.0000  24.8920 " ConfE="      -5936.8868" DelE="          0.1878"
Ni    -0.02486641    0.01829395   -3.55808310       1
Ni    -0.01749428    3.55872700   -0.00361417       2
Cr     3.55853259    0.01178585   -0.02366878       3
Cr     0.04150903   -3.50145467   -0.03142189       4
Cr    -3.59739903    0.02336594    0.01617454       5
Co    -0.01592287    0.01309387    3.57269860       6
Ni    -0.01311676   -1.71187244   -1.75621408       7
Ni    -0.03421385    1.74530604   -1.76917082       8
Ni     1.73224212    1.73538338   -0.01408857       9
Ni    -1.79860311   -1.71281487   -0.00705955      10
Co     1.73272202   -1.67819037    0.02124468      11
Co    -1.82017851    0.03228705   -1.73636532      12
Co    -0.03257802   -1.69526292    1.74987207      13
Cr    -1.65906912    0.08659882    1.71524099      14
Cr     1.72190891   -0.00648836    1.72467778      15
Co    -1.79088521    1.68349861    0.01538372      16
Co     0.00335976    1.71318708    1.74713416      17
Co     1.78830546   -0.00124312   -1.75395938      18
