          18
Lattice="  24.8920   0.0000   0.0000   0.0000  24.8920   0.0000   0.0000   0.0000  24.8920 " ConfE="      -5943.7783" DelE="          0.0000"
Ni     3.52978340    0.07003992    0.06023740       1
Ni    -0.00986756    0.06669042   -3.50344102       2
Ni    -3.54169251    0.08919478    0.06079057       3
Co     0.06023054   -3.42021722    0.05385200       4
Co    -0.01569853    0.08592613    3.62011120       5
Cr    -0.01202475    3.65659387    0.00724009       6
Ni     1.76303413    0.05034885    1.81246264       7
Ni     0.03419122   -1.70065709    1.79643475       8
Ni     1.74921971    0.03361030   -1.70232281       9
Ni     1.75654105    1.85573506    0.04676924      10
Ni     0.00578436    1.84855711    1.81166611      11
Cr     0.08407001   -1.77377233   -1.69691804      12
Cr    -1.72827488    0.08919794    1.83125383      13
Cr    -0.00324818    1.89427923   -1.76120680      14
Co    -1.71190430    1.78899220    0.00010373      15
Cr    -1.79788359   -1.73296083    0.02855815      16
Cr    -1.77327045    0.07413716   -1.72734117      17
Cr     0.00000000    0.00000000    0.00000000      18
          18
Lattice="  24.8920   0.0000   0.0000   0.0000  24.8920   0.0000   0.0000   0.0000  24.8920 " ConfE="      -5943.0791" DelE="          0.6992"
Ni     3.47997094    0.05532385    0.05115187       1
Ni    -0.00758798    0.08242005   -3.53658317       2
Ni    -3.55047128    0.08775680    0.04880867       3
Co     0.03063942   -3.44946346    0.08201487       4
Co    -0.04045327    0.10076192    3.67123209       5
Cr     0.01257380    3.66190687    0.01671508       6
Ni     1.75327207    0.08185771    1.90840705       7
Ni    -0.03501727   -1.72451820    1.93080188       8
Ni     1.78565922    0.12336755   -1.85079718       9
Ni     1.70231231    1.77964069    0.03531492      10
Ni     0.01303188    1.82392199    1.79705522      11
Cr     0.05557206   -1.81667885   -1.82279636      12
Cr    -1.62257488    0.07647360    1.64860939      13
Cr     0.03947638    1.91309129   -1.75615644      14
Co    -1.70159396    1.79295575    0.02473987      15
Cr    -1.77141687   -1.73019714    0.04747148      16
Cr    -1.47773029    0.09550470   -1.47401996      17
Cr     1.00071872   -1.01528145   -0.01575525      18
          18
Lattice="  24.8920   0.0000   0.0000   0.0000  24.8920   0.0000   0.0000   0.0000  24.8920 " ConfE="      -5943.6729" DelE="          0.1054"
Ni     3.53601156    0.07801528    0.06088091       1
Ni    -0.01711236    0.08658999   -3.53142564       2
Ni    -3.56166423    0.09373791    0.05340363       3
Co    -0.00990840   -3.50313494    0.06805808       4
Co    -0.01642292    0.09337568    3.64910394       5
Cr    -0.00351788    3.65806305    0.01150026       6
Ni     1.75003103    0.06477714    1.81886843       7
Ni    -0.01264838   -1.66331094    1.80849592       8
Ni     1.69253087    0.06788005   -1.69066895       9
Ni     1.72843547    1.82796855    0.05203386      10
Ni     0.00666273    1.83790242    1.81643508      11
Cr     0.02077707   -1.71953684   -1.70295730      12
Cr    -1.72917711    0.12379219    1.79166581      13
Cr    -0.01022079    1.89582272   -1.74197223      14
Co    -1.65611548    1.72410660   -0.00742855      15
Cr    -1.68980164   -1.63045264    0.03757468      16
Cr    -1.71341046    0.09896427   -1.66739932      17
Cr     1.65082084   -1.70517939    0.04189023      18
