          18
Lattice="  24.8920   0.0000   0.0000   0.0000  24.8920   0.0000   0.0000   0.0000  24.8920 " ConfE="      -5950.1252" DelE="          0.0000"
Co     0.06704594   -3.49287653    0.02551594       1
Ni    -0.01957879    0.05263123    3.50513280       2
Co     0.01084291    3.61199652   -0.01949315       3
Ni    -0.02681500    0.01171884   -3.57967698       4
Cr     3.49247435    0.05722919   -0.04494039       5
Co    -3.60796904    0.08471201   -0.03782340       6
Cr     1.79893745   -1.68423399    0.01919842       7
Ni    -1.73935997   -1.73650632    0.01671256       8
Co     1.74118946    0.03865206    1.73655850       9
Ni    -1.74493393    0.01147766    1.75650335      10
Ni    -0.00687024   -1.75460847   -1.80565795      11
Cr     0.01165682    1.87437781    1.76562300      12
Co    -0.07748397    1.83430914   -1.82572446      13
Co     1.74610469    0.02922087   -1.80495969      14
Ni    -1.80703834    0.03813020   -1.78368467      15
Ni     1.72506292    1.80286634   -0.05295447      16
Ni    -1.76175469    1.82917233   -0.02073906      17
Ni     0.00000000    0.00000000    0.00000000      18
          18
Lattice="  24.8920   0.0000   0.0000   0.0000  24.8920   0.0000   0.0000   0.0000  24.8920 " ConfE="      -5949.4107" DelE="          0.7144"
Co     0.05414768   -3.50558925    0.02533023       1
Ni    -0.02797175    0.03041077    3.46079539       2
Co     0.01651340    3.61675181   -0.00895139       3
Ni    -0.03051837   -0.00552704   -3.55755957       4
Cr     3.57843703    0.11153927   -0.05631499       5
Co    -3.66019096    0.10016263   -0.04472988       6
Cr     1.96398032   -1.69629550   -0.08277623       7
Ni    -1.92298562   -1.73900070   -0.03084344       8
Co     1.89224322    0.13931334    1.78458797       9
Ni    -1.86718290    0.06077489    1.75276936      10
Ni    -0.03217581   -1.70122958   -1.68627524      11
Cr     0.01089028    1.78107167    1.71700918      12
Co    -0.08603574    1.81078088   -1.79318431      13
Co     1.72912731    0.00999380   -1.75186925      14
Ni    -1.81481271    0.03890100   -1.75123967      15
Ni     1.69463644    1.75929540   -0.04827704      16
Ni    -1.74716578    1.80438495   -0.00645240      17
Ni     0.06348767   -1.07257250    0.99409348      18
          18
Lattice="  24.8920   0.0000   0.0000   0.0000  24.8920   0.0000   0.0000   0.0000  24.8920 " ConfE="      -5950.0025" DelE="          0.1227"
Co     0.06355808   -3.54192726   -0.00602227       1
Ni    -0.01052721    0.08080017    3.53600972       2
Co     0.00780949    3.64065106   -0.01917303       3
Ni    -0.03186710    0.00995794   -3.58705853       4
Cr     3.54413933    0.10116963   -0.05936936       5
Co    -3.63110574    0.09853718   -0.04458657       6
Cr     1.79111513   -1.61284713   -0.03968045       7
Ni    -1.74682477   -1.69564707   -0.01308058       8
Co     1.72326458    0.08659512    1.69768732       9
Ni    -1.73869065    0.06503521    1.72081987      10
Ni    -0.01529716   -1.71864116   -1.75721582      11
Cr     0.01921569    1.85766628    1.75671001      12
Co    -0.09274002    1.83888403   -1.82135872      13
Co     1.70962271    0.02839010   -1.76347719      14
Ni    -1.79979273    0.05344094   -1.77017306      15
Ni     1.67912238    1.78229397   -0.06230750      16
Ni    -1.73285934    1.82046867   -0.01639453      17
Ni     0.01500445   -1.68143819    1.69576459      18
