          18
Lattice="  24.8920   0.0000   0.0000   0.0000  24.8920   0.0000   0.0000   0.0000  24.8920 " ConfE="      -5949.7995" DelE="          0.0000"
Ni     0.00368420   -3.46540106   -0.01459285       1
Ni     3.53877919    0.03492613    0.02818935       2
Ni    -0.01265695    0.05311463    3.58130641       3
Cr    -0.03378972    0.13276086   -3.50193536       4
Cr    -3.52549884    0.08324521   -0.00707716       5
Co     0.00566779    3.58993802    0.02283833       6
Ni    -1.77563650   -1.72785358   -0.00076800       7
Ni     1.75756771    0.01537398   -1.73920690       8
Co    -1.70042322    0.01654025   -1.78276388       9
Cr     1.76396899   -1.80279195    0.04063369      10
Ni     1.77071209    0.03762932    1.79654245      11
Cr    -1.75165394    1.80303095   -0.01384892      12
Cr     0.01705135    1.85634472   -1.73310650      13
Co     0.04001274   -1.73282221    1.80397564      14
Cr    -1.79064648    0.04407586    1.79648380      15
Cr     1.70012142    1.84820663    0.03735046      16
Co    -0.05353428    1.81159884    1.78017507      17
Ni     0.00000000    0.00000000    0.00000000      18
          18
Lattice="  24.8920   0.0000   0.0000   0.0000  24.8920   0.0000   0.0000   0.0000  24.8920 " ConfE="      -5948.9494" DelE="          0.8501"
Ni    -0.00122467   -3.40697503   -0.03489091       1
Ni     3.59863294    0.05777291    0.04451085       2
Ni    -0.02270329    0.04931657    3.58196195       3
Cr    -0.01428181    0.08768833   -3.47979131       4
Cr    -3.64924389    0.10212077    0.02632461       5
Co     0.00895123    3.58802942    0.01892484       6
Ni    -1.91443547   -1.72825294    0.04905590       7
Ni     1.94644429    0.09820481   -1.78582636       8
Co    -1.92206315    0.12820595   -1.72179075       9
Cr     1.87228115   -1.76889781    0.08675797      10
Ni     1.76149738    0.03233153    1.76604248      11
Cr    -1.69186997    1.73706412   -0.00604730      12
Cr     0.01133622    1.73404462   -1.69875899      13
Co     0.02083327   -1.67876188    1.73329127      14
Cr    -1.77468140    0.02969379    1.74102148      15
Cr     1.61318532    1.76128889    0.05400058      16
Co    -0.06257181    1.74699874    1.72255401      17
Ni     0.02431720   -0.93969614   -1.04192692      18
          18
Lattice="  24.8920   0.0000   0.0000   0.0000  24.8920   0.0000   0.0000   0.0000  24.8920 " ConfE="      -5949.7088" DelE="          0.0907"
Ni    -0.00370462   -3.50617162    0.00419375       1
Ni     3.54636702    0.04746001    0.03020164       2
Ni    -0.01646173    0.05222564    3.59075350       3
Cr    -0.01420468    0.15809993   -3.55368317       4
Cr    -3.56405299    0.09513328    0.01023999       5
Co     0.01074067    3.61915189    0.02525459       6
Ni    -1.76023993   -1.69214527    0.01544826       7
Ni     1.75333019    0.04421228   -1.70728583       8
Co    -1.71082741    0.09125907   -1.69675542       9
Cr     1.73090361   -1.75425046    0.07643933      10
Ni     1.75389798    0.04128468    1.77580629      11
Cr    -1.67038389    1.76741892    0.00293517      12
Cr     0.01174756    1.79743313   -1.71400212      13
Co     0.04869836   -1.69239934    1.73348430      14
Cr    -1.77625948    0.05051441    1.77049015      15
Cr     1.60978093    1.80826962    0.05358316      16
Co    -0.05330761    1.76555514    1.73096724      17
Ni     0.00538527   -1.69877138   -1.77861988      18
