          18
Lattice="  24.8920   0.0000   0.0000   0.0000  24.8920   0.0000   0.0000   0.0000  24.8920 " ConfE="      -5933.9932" DelE="          0.0000"
Ni     0.10150846   -0.00350571   -3.53520510       1
Cr     3.68931360   -0.01207844    0.06197414       2
Cr     0.07970980   -0.00975013    3.55390009       3
Cr    -3.41296641    0.00623689   -0.00153627       4
Cr    -0.05381298   -3.55334191   -0.02042087       5
Ni     0.07685836    3.56727017   -0.02466880       6
Cr     0.11234009   -1.77660209   -1.74391219       7
Co     0.16349857    1.69228044   -1.75301319       8
Cr     1.82312802   -1.56979595   -0.08777959       9
Cr     1.82765697    1.66638813   -0.02491922      10
Cr    -1.72580204    0.05560662   -1.79959823      11
Ni     1.83546212    0.00552748    1.83309400      12
Co    -1.69641523    0.00716375    1.80024514      13
Co    -1.71331542   -1.75762120    0.00395417      14
Ni    -1.70543102    1.82324758   -0.02326783      15
Co     0.08181646   -1.79534571    1.76151166      16
Ni     0.07339250    1.82070594    1.78089107      17
Cr     0.00000000    0.00000000    0.00000000      18
          18
Lattice="  24.8920   0.0000   0.0000   0.0000  24.8920   0.0000   0.0000   0.0000  24.8920 " ConfE="      -5933.3401" DelE="          0.6530"
Ni     0.11140492   -0.00362635   -3.47656042       1
Cr     3.64666597   -0.01686939    0.05380987       2
Cr     0.10111285   -0.01222650    3.50747486       3
Cr    -3.40497384    0.00280491    0.00094481       4
Cr    -0.10376708   -3.65421688    0.00200652       5
Ni     0.07697448    3.64308925   -0.01190744       6
Cr     0.08800499   -1.92955922   -1.76300082       7
Co     0.10657237    1.87610740   -1.79141506       8
Cr     1.84961739   -1.96682124    0.04362127       9
Cr     1.88476548    1.92476131    0.03941327      10
Cr    -1.65180847    0.03077583   -1.72334587      11
Ni     1.81459982   -0.01183733    1.71482897      12
Co    -1.62720990    0.01181480    1.71846970      13
Co    -1.60781828   -1.70990291   -0.02765261      14
Ni    -1.63781332    1.80074700   -0.03527573      15
Co     0.09722091   -1.78680825    1.70781926      16
Ni     0.10411315    1.81199148    1.72820809      17
Cr     0.86033386   -0.00022134   -0.77803535      18
          18
Lattice="  24.8920   0.0000   0.0000   0.0000  24.8920   0.0000   0.0000   0.0000  24.8920 " ConfE="      -5933.7078" DelE="          0.2853"
Ni     0.09600120    0.00501673   -3.58394064       1
Cr     3.68308306   -0.01296831    0.07753672       2
Cr     0.08166248   -0.01090854    3.54525108       3
Cr    -3.41990916    0.00828924   -0.00351198       4
Cr    -0.08044831   -3.60403833   -0.00264257       5
Ni     0.06260953    3.62046124   -0.00371387       6
Cr     0.07745417   -1.79618371   -1.70496387       7
Co     0.11722786    1.72152939   -1.73121701       8
Cr     1.78477109   -1.76062807    0.03487392       9
Cr     1.80094204    1.77019840    0.04177689      10
Cr    -1.56090519    0.03419595   -1.69482889      11
Ni     1.79251455    0.00529183    1.75543238      12
Co    -1.66829592    0.01627718    1.76040533      13
Co    -1.64833408   -1.71102060    0.00516538      14
Ni    -1.67257661    1.80244275   -0.00080381      15
Co     0.07286334   -1.77830558    1.74168428      16
Ni     0.06659046    1.81921378    1.77373488      17
Cr     1.71769446   -0.01714044   -1.63809892      18
