          18
Lattice="  24.8920   0.0000   0.0000   0.0000  24.8920   0.0000   0.0000   0.0000  24.8920 " ConfE="      -5949.1273" DelE="          0.0000"
Co     0.04010097    3.51077705    0.01136494       1
Ni     3.50552452   -0.00788452    0.03595601       2
Cr    -0.06907121   -3.58058254    0.06912516       3
Co    -3.61369559    0.02692191    0.04810362       4
Cr    -0.08507530   -0.00713479   -3.47763191       5
Co    -0.05369729    0.01179981    3.59499316       6
Co     0.00681919    1.73085185   -1.73167715       7
Ni    -0.00399437    1.75263643    1.76174474       8
Cr     1.71592744    0.07681937   -1.73274479       9
Ni     1.76927207    0.03431542    1.77873836      10
Cr    -1.78870916    1.81666770    0.00473720      11
Ni     1.74386783   -1.79978550    0.04338225      12
Cr    -1.81146312   -1.79619827    0.07247704      13
Co    -1.82357106   -0.01607353   -1.71977078      14
Ni    -1.80146128    0.00657065    1.80221621      15
Cr    -0.03236282   -1.73322920   -1.68412237      16
Co    -0.06094139   -1.79435660    1.78062065      17
Co     0.00000000    0.00000000    0.00000000      18
          18
Lattice="  24.8920   0.0000   0.0000   0.0000  24.8920   0.0000   0.0000   0.0000  24.8920 " ConfE="      -5948.4263" DelE="          0.7010"
Co     0.03939976    3.43416069    0.01792778       1
Ni     3.46692609    0.00004989    0.06169981       2
Cr    -0.05761689   -3.58905730    0.06906247       3
Co    -3.60395858    0.03725275    0.05610015       4
Cr    -0.09677470   -0.02402449   -3.55477691       5
Co    -0.09402636   -0.02042307    3.68104384       6
Co    -0.09369410    1.78080052   -1.92473022       7
Ni    -0.02797430    1.76311183    1.91853610       8
Cr     1.78118382    0.02593449   -1.88174160       9
Ni     1.75970928   -0.03075369    1.95416453      10
Cr    -1.66540023    1.72799914   -0.01296661      11
Ni     1.70124391   -1.73147902    0.05607808      12
Cr    -1.71652603   -1.70308231    0.08310708      13
Co    -1.79652868   -0.01031621   -1.71237978      14
Ni    -1.76527889    0.02038707    1.80741275      15
Cr    -0.01234156   -1.60014494   -1.62501049      16
Co    -0.06072851   -1.77156630    1.78148561      17
Co     0.87537563    0.85554999   -0.06723756      18
          18
Lattice="  24.8920   0.0000   0.0000   0.0000  24.8920   0.0000   0.0000   0.0000  24.8920 " ConfE="      -5949.1827" DelE="         -0.0554"
Co    -0.00741165    3.55634484    0.01944020       1
Ni     3.54181638   -0.04074187    0.03531620       2
Cr    -0.06640495   -3.61739363    0.06730360       3
Co    -3.62445663    0.02705508    0.05522398       4
Cr    -0.09956960   -0.01695420   -3.51631249       5
Co    -0.06897584    0.00543252    3.61402769       6
Co    -0.03047478    1.68675087   -1.70454078       7
Ni    -0.03709556    1.72413830    1.75704614       8
Cr     1.68907110    0.06587243   -1.72520602       9
Ni     1.73192899   -0.00908247    1.79249907      10
Cr    -1.73864371    1.79261096   -0.00711835      11
Ni     1.69388706   -1.74507025    0.03355320      12
Cr    -1.77870992   -1.78615166    0.09452027      13
Co    -1.78421802   -0.02737250   -1.66525201      14
Ni    -1.78970207    0.00555026    1.77793321      15
Cr    -0.05729736   -1.66604491   -1.63069934      16
Co    -0.08158519   -1.78483554    1.75329534      17
Co     1.72865418    1.73623180    0.02443249      18
