          18
Lattice="  24.8920   0.0000   0.0000   0.0000  24.8920   0.0000   0.0000   0.0000  24.8920 " ConfE="      -5938.1172" DelE="          0.0000"
Cr     3.43191075    0.06950509    0.00049952       1
Cr     0.01710634    0.06336185    3.40763102       2
Ni    -0.03547762    3.56467948   -0.05843574       3
Co    -0.09340152   -3.54474936   -0.11183767       4
Cr    -0.11079667    0.07253097   -3.61215033       5
Co    -3.57438243   -0.04051361   -0.07445057       6
Ni     1.74418352   -1.75880933   -0.06576949       7
Co     1.76052719    1.78099084   -0.05210873       8
Co     0.03679866    1.72256704    1.75181973       9
Cr     0.02158276   -1.79645762    1.72541838      10
Ni     1.72899624    0.00692683   -1.86028906      11
Ni    -1.80298142    1.75757246   -0.07336585      12
Ni    -0.04796734   -1.75602267   -1.84050460      13
Cr    -1.85642673   -0.04378774    1.68125264      14
Co    -0.04147584    1.78795197   -1.85976315      15
Cr    -1.81050576   -1.79050274   -0.03535473      16
Co    -1.82716814   -0.01822629   -1.86080708      17
Ni     0.00000000    0.00000000    0.00000000      18
          18
Lattice="  24.8920   0.0000   0.0000   0.0000  24.8920   0.0000   0.0000   0.0000  24.8920 " ConfE="      -5937.7100" DelE="          0.4072"
Cr     3.36682083    0.03349689    0.03211526       1
Cr     0.02825845    0.08113715    3.34944388       2
Ni    -0.05312091    3.62615744   -0.06966441       3
Co    -0.10593328   -3.59202740   -0.13781234       4
Cr    -0.11597458    0.07557346   -3.61860053       5
Co    -3.57106778   -0.03243234   -0.06942083       6
Ni     1.76627595   -1.90989466   -0.14421196       7
Co     1.74945356    1.89814937   -0.09687664       8
Co    -0.02922933    1.92589270    1.76968041       9
Cr     0.01773562   -2.01746153    1.76084225      10
Ni     1.68065770   -0.00242058   -1.78296286      11
Ni    -1.76669899    1.75708390   -0.07046456      12
Ni    -0.05308732   -1.78046969   -1.85638741      13
Cr    -1.79653637   -0.00859227    1.65611718      14
Co    -0.03532344    1.79763879   -1.85815234      15
Cr    -1.71614760   -1.70563653   -0.01475003      16
Co    -1.78493843   -0.01765148   -1.82549411      17
Ni     0.58738534   -0.04849069    0.67586016      18
          18
Lattice="  24.8920   0.0000   0.0000   0.0000  24.8920   0.0000   0.0000   0.0000  24.8920 " ConfE="      -5938.2385" DelE="         -0.1213"
Cr     3.51342885    0.05574776   -0.05043988       1
Cr    -0.04160838    0.06604413    3.49727795       2
Ni    -0.04642949    3.59073299   -0.07008686       3
Co    -0.09793198   -3.56693605   -0.12476353       4
Cr    -0.11060524    0.08037625   -3.61878697       5
Co    -3.60037574   -0.03528698   -0.08714114       6
Ni     1.72026466   -1.73979183   -0.07481711       7
Co     1.72913378    1.81061943   -0.08757739       8
Co    -0.04870834    1.73976727    1.68363904       9
Cr    -0.03331328   -1.76127415    1.65039205      10
Ni     1.71053731    0.02222630   -1.81451381      11
Ni    -1.78801718    1.73671058   -0.09477445      12
Ni    -0.04826259   -1.72553836   -1.80948382      13
Cr    -1.77645528   -0.03220383    1.62309907      14
Co    -0.04070253    1.77561203   -1.85750142      15
Cr    -1.79816699   -1.73926515   -0.05757328      16
Co    -1.82110728   -0.01934679   -1.85558172      17
Ni     1.69458236    0.05282358    1.67346666      18
