          18
Lattice="  24.8920   0.0000   0.0000   0.0000  24.8920   0.0000   0.0000   0.0000  24.8920 " ConfE="      -5941.1877" DelE="          0.0000"
Ni     0.00259252    0.09929820    3.44010474       1
Ni     0.02079187    3.65823760   -0.12310538       2
Ni    -3.48591023    0.06623730   -0.09428331       3
Cr     0.04318545   -3.46905335   -0.07196474       4
Co     3.55812855    0.05450012   -0.08371244       5
Co    -0.01314401    0.07169928   -3.69457562       6
Co     1.73066804    0.05685873    1.62629626       7
Cr     1.75555673   -1.69674741   -0.05760834       8
Ni     0.04298913   -1.70727395   -1.92991102       9
Ni     0.03574792    1.90830320    1.67090135      10
Co    -1.69210887    0.08076977    1.63171105      11
Ni     0.00754266    1.83106996   -1.87527682      12
Co    -1.64751034   -1.71792350   -0.07131921      13
Ni    -1.73873105    1.86256239   -0.09035420      14
Cr     1.86042441    0.09772091   -1.94488912      15
Cr     1.79935485    1.83509021   -0.17454027      16
Cr    -1.73821740    0.03123622   -1.84771911      17
Cr     0.00000000    0.00000000    0.00000000      18
          18
Lattice="  24.8920   0.0000   0.0000   0.0000  24.8920   0.0000   0.0000   0.0000  24.8920 " ConfE="      -5940.7838" DelE="          0.4039"
Ni     0.00483848    0.09017537    3.39299872       1
Ni     0.00826955    3.68230782   -0.12007967       2
Ni    -3.52723894    0.07674525   -0.10264499       3
Cr     0.04913600   -3.54768533   -0.10460419       4
Co     3.62768436    0.08220544   -0.11329091       5
Co    -0.02822940    0.06005935   -3.66636749       6
Co     1.84893283    0.12761853    1.61791090       7
Cr     1.92201984   -1.70173860   -0.15413368       8
Ni     0.03330593   -1.72627270   -1.83673469       9
Ni     0.03531132    1.84449340    1.62781869      10
Co    -1.80545593    0.11330056    1.65285830      11
Ni    -0.01159336    1.86569153   -1.86884996      12
Co    -1.82939185   -1.76996985   -0.15407988      13
Ni    -1.72678543    1.83989821   -0.08740990      14
Cr     1.71226975    0.10605057   -1.81836699      15
Cr     1.77258384    1.82114480   -0.16201049      16
Cr    -1.64013421    0.01780768   -1.72586541      17
Cr    -0.01368039   -0.95842859    0.90575318      18
          18
Lattice="  24.8920   0.0000   0.0000   0.0000  24.8920   0.0000   0.0000   0.0000  24.8920 " ConfE="      -5941.4197" DelE="         -0.2320"
Ni     0.00754738    0.10744010    3.47595500       1
Ni     0.02109401    3.65576488   -0.12578044       2
Ni    -3.50351716    0.06958768   -0.09703496       3
Cr     0.10577745   -3.51314291   -0.12947615       4
Co     3.60969782    0.08248930   -0.09408306       5
Co    -0.01266078    0.07711946   -3.72582093       6
Co     1.72164882    0.10548036    1.59078333       7
Cr     1.74367806   -1.52666241   -0.12604448       8
Ni     0.04784630   -1.67974976   -1.90644415       9
Ni     0.02865631    1.87543760    1.65705645      10
Co    -1.68217994    0.06737520    1.63078330      11
Ni     0.00103185    1.81787119   -1.87539603      12
Co    -1.64182719   -1.67479083   -0.10974390      13
Ni    -1.71732139    1.82267812   -0.09915194      14
Cr     1.83616183    0.12335051   -1.94507946      15
Cr     1.76913910    1.78068431   -0.18064830      16
Cr    -1.72814817    0.03164182   -1.85439432      17
Cr     0.02296509   -1.63539308    1.58286434      18
