          18
Lattice="  24.8920   0.0000   0.0000   0.0000  24.8920   0.0000   0.0000   0.0000  24.8920 " ConfE="      -5933.9256" DelE="          0.0000"
Ni     0.04664404   -3.52686229    0.06165870       1
Ni     0.02719216   -0.03062888   -3.39117398       2
Ni    -3.52632329    0.02607141    0.07620897       3
Ni     0.04788159    3.60046661    0.06907563       4
Ni     3.60041430    0.02015806    0.05810326       5
Ni     0.01806603    0.02513600    3.61981601       6
Ni    -1.71390403   -1.75673013    0.04604775       7
Cr    -1.80278193    0.05457363   -1.68481554       8
Ni     0.06111429    1.81804620   -1.71258227       9
Cr     1.84759520   -0.01372122   -1.71620609      10
Co     1.75609251   -1.69034863    0.00412720      11
Cr     0.03674147   -1.79683678    1.86042158      12
Cr    -1.70180212    0.05921925    1.81848870      13
Co    -1.71564743    1.80958610    0.06213778      14
Cr     1.80523089    1.77765038    0.07016267      15
Cr     1.72747656   -0.03959083    1.75798972      16
Co     0.07469751    1.77791623    1.82404831      17
Ni     0.00000000    0.00000000    0.00000000      18
          18
Lattice="  24.8920   0.0000   0.0000   0.0000  24.8920   0.0000   0.0000   0.0000  24.8920 " ConfE="      -5933.1028" DelE="          0.8228"
Ni     0.05065267   -3.49368669    0.04852074       1
Ni     0.01400637    0.00076068   -3.41930094       2
Ni    -3.58736246    0.02388429    0.09826026       3
Ni     0.05051710    3.58722040    0.06241779       4
Ni     3.64954470    0.03036848    0.07530266       5
Ni     0.02467676    0.02099628    3.61993351       6
Ni    -1.81056675   -1.78228379    0.08291060       7
Cr    -1.92147274    0.11708478   -1.65035298       8
Ni     0.07569053    1.72745556   -1.66170672       9
Cr     2.01282293    0.09149319   -1.74499890      10
Co     1.89525786   -1.73238813    0.10752298      11
Cr     0.02620685   -1.78878130    1.81008571      12
Cr    -1.55718275    0.05478080    1.65599146      13
Co    -1.68387484    1.72714100    0.05833721      14
Cr     1.79708504    1.74445837    0.06392280      15
Cr     1.60676171   -0.05673417    1.59618668      16
Co     0.08725545    1.73646105    1.79044869      17
Ni     0.06084688   -0.96803098   -1.08895773      18
          18
Lattice="  24.8920   0.0000   0.0000   0.0000  24.8920   0.0000   0.0000   0.0000  24.8920 " ConfE="      -5933.6451" DelE="          0.2804"
Ni     0.04981168   -3.57437171    0.07450848       1
Ni     0.02768522    0.02188924   -3.44966833       2
Ni    -3.53673508    0.02140606    0.08700046       3
Ni     0.05015100    3.62309376    0.07100765       4
Ni     3.60737007    0.02281697    0.05988344       5
Ni     0.02793515    0.03263857    3.62505936       6
Ni    -1.69104601   -1.74109539    0.07733319       7
Cr    -1.71790503    0.08164481   -1.58147496       8
Ni     0.08268423    1.77984865   -1.66793369       9
Cr     1.79827231    0.03161616   -1.62176949      10
Co     1.76602863   -1.69939165    0.04808060      11
Cr     0.02910019   -1.81055528    1.84874379      12
Cr    -1.55135014    0.07017529    1.68332163      13
Co    -1.66565109    1.74463918    0.07324704      14
Cr     1.80775629    1.80480131    0.07628352      15
Cr     1.55726170   -0.04438089    1.56738671      16
Co     0.08995256    1.76770135    1.80465442      17
Ni     0.05095962   -1.72032452   -1.67572051      18
