          19
Lattice="  24.8920   0.0000   0.0000   0.0000  24.8920   0.0000   0.0000   0.0000  24.8920 " ConfE="      -5937.8500" DelE="          0.0000"
Cr     0.03620236    0.03918675   -3.48788874       1
Ni     0.89848751    2.71423063   -1.78409327       2
Co    -3.53739979   -0.00377387   -0.01823455       3
Cr    -0.01956345    3.56023155    0.19617224       4
Co     0.02149586   -3.64669637   -0.04880956       5
Cr     3.49271619    0.00169629   -0.05226581       6
Co     0.01919855   -0.03967546    3.62030509       7
Co    -1.63888083    0.02651537   -1.83100991       8
Ni    -1.70481869    1.75790400    0.00573327       9
Co     0.07628285   -1.88324592   -1.84720312      10
Co     1.71925438    0.04041233   -1.80781548      11
Ni    -1.73230196   -1.79921751   -0.04223873      12
Ni    -1.75031848   -0.02649572    1.78350848      13
Cr     0.04037302    1.72518969    1.89907748      14
Ni     1.75655689   -1.80643182    0.00102575      15
Ni     1.76077657    1.71215518    0.13527839      16
Ni     0.00283299   -1.81249135    1.79361399      17
Ni     1.78018017   -0.06183367    1.82638035      18
Ni     0.00000000    0.00000000    0.00000000      19
          19
Lattice="  24.8920   0.0000   0.0000   0.0000  24.8920   0.0000   0.0000   0.0000  24.8920 " ConfE="      -5937.0397" DelE="          0.8103"
Cr     0.00683240    0.03603843   -3.35538331       1
Ni     1.05241681    2.88581459   -1.75754995       2
Co    -3.58678241   -0.01096704   -0.01530085       3
Cr    -0.04978586    3.51134216    0.17846990       4
Co     0.01873885   -3.64554567   -0.06396995       5
Cr     3.57100006   -0.00994176   -0.00711196       6
Co     0.02810838   -0.03184771    3.61623186       7
Co    -1.83176607   -0.05223271   -1.85775122       8
Ni    -1.85612323    1.79016340    0.02752797       9
Co     0.07170910   -1.81183637   -1.81674605      10
Co     1.97423412   -0.09700733   -1.78303219      11
Ni    -1.73524452   -1.76815251   -0.05658120      12
Ni    -1.72894350   -0.01953906    1.73337396      13
Cr     0.03532698    1.68292159    1.74510408      14
Ni     1.77065239   -1.80109109    0.00582094      15
Ni     1.90924011    1.75527188    0.13589882      16
Ni     0.00511672   -1.76647522    1.73586933      17
Ni     1.78085274   -0.04889980    1.78716237      18
Ni     0.04141269    0.72785689   -0.75702365      19
          19
Lattice="  24.8920   0.0000   0.0000   0.0000  24.8920   0.0000   0.0000   0.0000  24.8920 " ConfE="      -5938.4016" DelE="         -0.5516"
Cr     0.02737132   -0.04870992   -3.54578222       1
Ni     1.76016377    3.52787507   -1.80331234       2
Co    -3.56922991   -0.00747248   -0.01135913       3
Cr    -0.00775584    3.55673403    0.05819543       4
Co     0.01441616   -3.65941913   -0.05370059       5
Cr     3.52666754   -0.01368982   -0.03773128       6
Co     0.02529810   -0.02612715    3.61923153       7
Co    -1.67172285   -0.03836403   -1.79470042       8
Ni    -1.70850416    1.72315997    0.00651149       9
Co     0.07244505   -1.86211520   -1.84613244      10
Co     1.75283130   -0.03865643   -1.78019866      11
Ni    -1.70822197   -1.76807495   -0.04310620      12
Ni    -1.70750570   -0.01606289    1.74620399      13
Cr     0.04908604    1.74998460    1.79417508      14
Ni     1.73265531   -1.79164679   -0.00473990      15
Ni     1.72317039    1.72557830   -0.00569751      16
Ni     0.00623962   -1.78739987    1.76203989      17
Ni     1.74603307   -0.02803798    1.75375874      18
Ni     0.02188376    1.74135169   -1.75502323      19
