          18
Lattice="  24.8920   0.0000   0.0000   0.0000  24.8920   0.0000   0.0000   0.0000  24.8920 " ConfE="      -5926.6286" DelE="          0.0000"
Ni    -0.23813523   -0.04527465    3.76614052       1
Cr     3.17061310   -0.00651048    0.07741965       2
Cr    -0.08466457    0.01831496   -3.13302336       3
Ni    -0.25820340   -3.60722646    0.21245910       4
Cr    -3.86089593    0.07061676    0.19874788       5
Cr    -0.35848017    3.63523848    0.27826821       6
Ni     1.56441181   -1.84932636    0.18223459       7
Ni    -0.23440336   -1.84110011   -1.55029419       8
Cr     1.54740868    1.80416873    0.22657143       9
Cr    -0.29929453    1.85006052   -1.54230651      10
Cr    -0.28934769   -1.75282702    1.90767179      11
Cr     1.53519946    0.00707758    1.96234926      12
Cr    -2.08021882    0.03229045    1.95997524      13
Co    -0.24862694    1.73041941    1.92436458      14
Cr    -2.04621194   -1.76130830    0.18963075      15
Co    -2.05259641    0.04255810   -1.54312055      16
Cr    -2.09203225    1.82695721    0.21203209      17
Cr     0.00000000    0.00000000    0.00000000      18
          18
Lattice="  24.8920   0.0000   0.0000   0.0000  24.8920   0.0000   0.0000   0.0000  24.8920 " ConfE="      -5926.1098" DelE="          0.5188"
Ni    -0.22709649   -0.04905136    3.77856582       1
Cr     3.24452889   -0.02005802    0.11550656       2
Cr    -0.16196916   -0.01236212   -3.28833875       3
Ni    -0.27331788   -3.60280385    0.21037800       4
Cr    -3.84007685    0.07410185    0.16812732       5
Cr    -0.41138119    3.65393956    0.29549990       6
Ni     1.57750472   -1.89105258    0.17320054       7
Ni    -0.26862476   -1.92256592   -1.60364218       8
Cr     1.55261305    1.88276922    0.30798809       9
Cr    -0.37775189    1.95631313   -1.62253559      10
Cr    -0.22405682   -1.64983713    1.81387340      11
Cr     1.55480145    0.00587844    1.93581770      12
Cr    -2.08275690    0.03474290    2.02205279      13
Co    -0.22666509    1.66510825    1.85406096      14
Cr    -1.90645446   -1.52411808    0.18679836      15
Co    -1.99335716    0.03868177   -1.61607929      16
Cr    -1.97916829    1.67180458    0.18565476      17
Cr     0.51701041    0.06931318   -0.65547208      18
          18
Lattice="  24.8920   0.0000   0.0000   0.0000  24.8920   0.0000   0.0000   0.0000  24.8920 " ConfE="      -5926.5722" DelE="          0.0564"
Ni    -0.24199460   -0.04926225    3.80671094       1
Cr     3.30322463    0.00499063    0.20681474       2
Cr    -0.28017432    0.01338325   -3.33406983       3
Ni    -0.26938396   -3.59981809    0.22128629       4
Cr    -3.84856762    0.07997284    0.20891594       5
Cr    -0.37282217    3.62806082    0.28787546       6
Ni     1.52765140   -1.81399734    0.23034776       7
Ni    -0.27077203   -1.78204415   -1.51242164       8
Cr     1.35454891    1.71057515    0.28359427       9
Cr    -0.31513646    1.76872598   -1.54483978      10
Cr    -0.30083691   -1.73539928    1.92660140      11
Cr     1.47922143   -0.00947193    1.92656591      12
Cr    -2.05464953    0.02740734    1.98470894      13
Co    -0.26934660    1.71490086    1.97225771      14
Cr    -2.01893702   -1.68310038    0.21799712      15
Co    -2.01118021    0.03875007   -1.51978350      16
Cr    -2.01434077    1.76065384    0.21654076      17
Cr     1.42820797   -0.01632535   -1.43679629      18
