          18
Lattice="  24.8920   0.0000   0.0000   0.0000  24.8920   0.0000   0.0000   0.0000  24.8920 " ConfE="      -5945.0478" DelE="          0.0000"
Cr    -0.01939003    0.02235225   -3.47638177       1
Cr     3.50961998    0.01644511    0.06139826       2
Cr    -0.07789601   -0.00398918    3.64596752       3
Ni    -3.61656254    0.00130569    0.02342818       4
Ni    -0.01122404   -3.50793508    0.02623847       5
Co    -0.04248061    3.55783700    0.02588583       6
Cr    -0.00658855   -1.63853992   -1.76736745       7
Ni    -0.04198164    1.75267025   -1.73943712       8
Ni     1.75293228   -1.71606182    0.01370250       9
Ni     1.74345419    1.75397985   -0.00292795      10
Co    -1.84473868    0.00302412   -1.76318271      11
Ni     1.71975843    0.02570948    1.84401667      12
Ni    -1.78705280    0.03224367    1.78379840      13
Ni    -1.80769456   -1.74890078    0.02786878      14
Ni    -1.82799518    1.78722795    0.00959907      15
Co    -0.02125036   -1.76021027    1.81269822      16
Cr    -0.04726605    1.81622799    1.76331536      17
Cr     0.00000000    0.00000000    0.00000000      18
          18
Lattice="  24.8920   0.0000   0.0000   0.0000  24.8920   0.0000   0.0000   0.0000  24.8920 " ConfE="      -5944.3342" DelE="          0.7136"
Cr    -0.04134324    0.04829678   -3.51774447       1
Cr     3.51211272   -0.00165562    0.07212430       2
Cr    -0.05964897    0.00133230    3.60881119       3
Ni    -3.59641149   -0.00251136    0.00728796       4
Ni    -0.02977591   -3.56703810    0.04158970       5
Co    -0.05667897    3.63665283    0.03998918       6
Cr    -0.10172968   -1.81249332   -1.79524066       7
Ni    -0.06505612    1.88663369   -1.74738556       8
Ni     1.77834717   -1.88355038    0.10746286       9
Ni     1.75543869    1.88368139    0.02634265      10
Co    -1.70652225   -0.00427529   -1.75343175      11
Ni     1.69068414    0.01850499    1.74219993      12
Ni    -1.73424196    0.03243758    1.74393337      13
Ni    -1.76361814   -1.73838307    0.02104359      14
Ni    -1.78564728    1.77569008   -0.00714432      15
Co    -0.02294812   -1.76429458    1.79433044      16
Cr    -0.03980012    1.76791631    1.69856434      17
Cr     0.91485077   -0.06233849   -0.95213502      18
          18
Lattice="  24.8920   0.0000   0.0000   0.0000  24.8920   0.0000   0.0000   0.0000  24.8920 " ConfE="      -5945.1582" DelE="         -0.1103"
Cr    -0.06043470    0.01253305   -3.55293305       1
Cr     3.53332757    0.00786181    0.10483648       2
Cr    -0.07866251   -0.00418087    3.64878036       3
Ni    -3.61618262   -0.00169807    0.02172491       4
Ni    -0.03124395   -3.54097707    0.03329024       5
Co    -0.04778146    3.59387233    0.02862369       6
Cr    -0.07655914   -1.65922662   -1.75138759       7
Ni    -0.05178201    1.75687566   -1.72553512       8
Ni     1.69563676   -1.72149690    0.03439619       9
Ni     1.70975755    1.76526753    0.02524040      10
Co    -1.75469777   -0.01762012   -1.74548885      11
Ni     1.67271371    0.02907252    1.80126054      12
Ni    -1.75884901    0.03362840    1.77369794      13
Ni    -1.79295104   -1.74204332    0.03897393      14
Ni    -1.80373906    1.77119544    0.01576785      15
Co    -0.03887822   -1.76996944    1.81992380      16
Cr    -0.07108784    1.81290361    1.76991323      17
Cr     1.67647321   -0.02226051   -1.69556007      18
