          18
Lattice="  24.8920   0.0000   0.0000   0.0000  24.8920   0.0000   0.0000   0.0000  24.8920 " ConfE="      -5924.5174" DelE="          0.0000"
Ni     0.01065169    0.03166546    3.53705065       1
Co     3.41244846    0.01410295   -0.00074163       2
Ni    -0.04732613    0.00120662   -3.59946744       3
Co    -3.58026435    0.05330452   -0.04395207       4
Ni    -0.02361472   -3.49473154   -0.01692401       5
Cr     0.03950833    3.45979030   -0.07101374       6
Ni     0.04484450   -1.73477669    1.74237918       7
Ni     0.00517070    1.76112120    1.79257010       8
Cr     1.78702423   -1.75743257   -0.00490562       9
Co     1.65734375    1.81529270   -0.01244779      10
Ni    -1.79795313    0.01289737    1.74775871      11
Ni     1.72837361    0.00851374   -1.81008433      12
Cr    -1.82573494    0.01208551   -1.77171679      13
Co    -1.83133959   -1.71898552   -0.05646776      14
Cr    -1.77254931    1.77364083   -0.01089541      15
Ni    -0.02606361   -1.77776137   -1.79672783      16
Co    -0.11084913    1.76347788   -1.81477257      17
Ni     0.00000000    0.00000000    0.00000000      18
          18
Lattice="  24.8920   0.0000   0.0000   0.0000  24.8920   0.0000   0.0000   0.0000  24.8920 " ConfE="      -5923.6709" DelE="          0.8465"
Ni     0.02527352    0.02217313    3.47987704       1
Co     3.45792663    0.03274190   -0.00957586       2
Ni    -0.04334445   -0.00293142   -3.57177096       3
Co    -3.59365808    0.05415466   -0.03663584       4
Ni    -0.04737258   -3.55215038   -0.02186298       5
Cr     0.00493123    3.59362292   -0.04473369       6
Ni    -0.04374354   -1.88272317    1.76324626       7
Ni    -0.04230985    1.88465966    1.79867779       8
Cr     1.80291076   -1.95377817   -0.04739217       9
Co     1.66492219    2.01768713   -0.06566310      10
Ni    -1.72653837    0.01708532    1.69888666      11
Ni     1.68606707    0.00755201   -1.69919304      12
Cr    -1.74015605   -0.01362278   -1.65571023      13
Co    -1.78561228   -1.68535698   -0.06494417      14
Cr    -1.71264276    1.75696995   -0.02220584      15
Ni    -0.00820748   -1.78771830   -1.75956890      16
Co    -0.11900443    1.73589314   -1.73112365      17
Ni     1.07559500   -0.01512227    0.94925427      18
          18
Lattice="  24.8920   0.0000   0.0000   0.0000  24.8920   0.0000   0.0000   0.0000  24.8920 " ConfE="      -5924.3361" DelE="          0.1813"
Ni    -0.03456701    0.03132340    3.55820773       1
Co     3.50095203    0.02345155   -0.02771639       2
Ni    -0.04773736   -0.00109876   -3.59673940       3
Co    -3.62052057    0.05185641   -0.04484016       4
Ni    -0.03026222   -3.51425202   -0.02196081       5
Cr     0.02519109    3.51019123   -0.07386490       6
Ni    -0.00915140   -1.74059243    1.70304057       7
Ni    -0.05178343    1.77011738    1.75133963       8
Cr     1.75793489   -1.76619219   -0.01890499       9
Co     1.62413368    1.78478917   -0.01864799      10
Ni    -1.77190759    0.02233912    1.69466402      11
Ni     1.70679612   -0.00035138   -1.74990852      12
Cr    -1.79367810   -0.00660217   -1.71290963      13
Co    -1.79749402   -1.66577878   -0.08396750      14
Cr    -1.76541921    1.75730857   -0.04827969      15
Ni    -0.01594519   -1.76053035   -1.77196624      16
Co    -0.13733454    1.71488738   -1.75195805      17
Ni     1.70774396    0.00970952    1.72363437      18
