          18
Lattice="  24.8920   0.0000   0.0000   0.0000  24.8920   0.0000   0.0000   0.0000  24.8920 " ConfE="      -5947.7931" DelE="          0.0000"
Ni     0.03558686    3.45202206   -0.02072430       1
Co     3.51990145    0.00524970   -0.04008600       2
Cr    -0.01904168   -3.59760775   -0.03736685       3
Cr    -3.56360874   -0.05170033   -0.01721591       4
Co     0.00094899   -0.03946889   -3.61576644       5
Ni     0.02938124   -0.02210540    3.55138923       6
Co    -0.01565521    1.74696827   -1.82937428       7
Co    -0.03646465    1.77271038    1.80394855       8
Co     1.79395595   -0.00873986   -1.78944961       9
Ni     1.74590568    0.00995374    1.72699232      10
Ni    -1.77615387    1.73956603   -0.01944528      11
Ni     1.76532353   -1.81066153    0.00201987      12
Ni    -1.77238330   -1.80326955   -0.02914029      13
Ni    -1.75673886   -0.03383045   -1.81721402      14
Cr    -1.71759214    0.00677785    1.75379001      15
Ni     0.01674378   -1.79210372   -1.79703644      16
Co    -0.02138886   -1.85177450    1.76400741      17
Co     0.00000000    0.00000000    0.00000000      18
          18
Lattice="  24.8920   0.0000   0.0000   0.0000  24.8920   0.0000   0.0000   0.0000  24.8920 " ConfE="      -5947.2749" DelE="          0.5182"
Ni     0.04229539    3.42573819   -0.01670860       1
Co     3.44479523    0.04415922   -0.01772429       2
Cr    -0.00931661   -3.60500177   -0.03039305       3
Cr    -3.58906597   -0.04563139   -0.02021931       4
Co    -0.00386742   -0.04195805   -3.65658837       5
Ni     0.01880479   -0.02084560    3.60928950       6
Co    -0.05405338    1.79950556   -1.95415610       7
Co    -0.06406022    1.80895249    1.92160428       8
Co     1.84588902   -0.04773361   -1.91977252       9
Ni     1.76506333   -0.07751011    1.89628128      10
Ni    -1.71834589    1.69767653   -0.00674739      11
Ni     1.74067286   -1.75749548    0.02082530      12
Ni    -1.73423747   -1.75491492   -0.01760003      13
Ni    -1.71030151   -0.01809951   -1.79637240      14
Cr    -1.65796003    0.01650144    1.74865777      15
Ni     0.04062778   -1.74876400   -1.76864872      16
Co    -0.02991427   -1.83682454    1.77521727      17
Co     0.69790292    0.70394385   -0.03336738      18
          18
Lattice="  24.8920   0.0000   0.0000   0.0000  24.8920   0.0000   0.0000   0.0000  24.8920 " ConfE="      -5948.1213" DelE="         -0.3281"
Ni    -0.00589585    3.50743771   -0.00928563       1
Co     3.56233066   -0.04294260   -0.05717756       2
Cr    -0.02379531   -3.62093258   -0.03587765       3
Cr    -3.59603029   -0.05322792   -0.01928023       4
Co     0.00310143   -0.03721953   -3.63020703       5
Ni     0.02651862   -0.02441555    3.57430166       6
Co    -0.01354902    1.74045117   -1.82667785       7
Co    -0.03255884    1.75044610    1.79426501       8
Co     1.79414776   -0.02919147   -1.80427570       9
Ni     1.70721792   -0.02654391    1.71948418      10
Ni    -1.70790566    1.67838026   -0.00754717      11
Ni     1.73423751   -1.77861919   -0.00346508      12
Ni    -1.74647909   -1.76846883   -0.02144705      13
Ni    -1.72405933   -0.03302792   -1.79415366      14
Cr    -1.71990180    0.00296604    1.76583601      15
Ni     0.02003767   -1.77586295   -1.78067529      16
Co    -0.03600606   -1.83604892    1.75946287      17
Co     1.76942081    1.74927279   -0.03000152      18
