          18
Lattice="  24.8920   0.0000   0.0000   0.0000  24.8920   0.0000   0.0000   0.0000  24.8920 " ConfE="      -5945.2408" DelE="          0.0000"
Ni    -3.49628004    0.03289125   -0.07704273       1
Cr    -0.03638825    0.06039804   -3.64547239       2
Ni     3.55222633    0.02376381   -0.05005069       3
Co     0.02292232   -0.01297719    3.48022192       4
Ni    -0.00475259   -3.54499576   -0.04455418       5
Ni    -0.01822270    3.56319348   -0.03941750       6
Cr    -1.74256201   -1.70767127   -0.04842699       7
Ni    -1.74745374    1.76177437   -0.05224424       8
Co    -0.09125296   -1.65659664   -1.75655890       9
Ni    -0.00978227    1.77499711   -1.81119836      10
Co    -1.72413476    0.02153040    1.76261062      11
Ni     1.78355739    0.02917083   -1.83185924      12
Cr     1.80011969    0.00949802    1.77234008      13
Cr     0.02972249   -1.80728575    1.75057341      14
Cr     0.02066509    1.80618890    1.82562930      15
Cr     1.77181516   -1.76795555   -0.03577762      16
Cr     1.72147512    1.77146547   -0.01927520      17
Cr     0.00000000    0.00000000    0.00000000      18
          18
Lattice="  24.8920   0.0000   0.0000   0.0000  24.8920   0.0000   0.0000   0.0000  24.8920 " ConfE="      -5944.7457" DelE="          0.4952"
Ni    -3.47163283    0.04296886   -0.06445764       1
Cr    -0.03770953    0.04573005   -3.67381344       2
Ni     3.52816739    0.01171074   -0.05678069       3
Co     0.00594846   -0.00777678    3.51792270       4
Ni     0.01642686   -3.57517137   -0.03936919       5
Ni     0.00300875    3.58688530   -0.03993547       6
Cr    -1.70546202   -1.85150614    0.04111159       7
Ni    -1.76619862    1.89492985   -0.01721354       8
Co     0.04479065   -1.84053969   -1.86303755       9
Ni     0.01428218    1.86815193   -1.84777505      10
Co    -1.63501193    0.02405923    1.65520530      11
Ni     1.70892144    0.02795774   -1.86226662      12
Cr     1.77187891   -0.00565451    1.81469340      13
Cr     0.01619392   -1.75067412    1.74894863      14
Cr    -0.02270856    1.76259768    1.81125204      15
Cr     1.57295490   -1.59413783   -0.02572530      16
Cr     1.49955628    1.51474276    0.02712020      17
Cr    -1.00272191   -0.07212920   -1.00127031      18
          18
Lattice="  24.8920   0.0000   0.0000   0.0000  24.8920   0.0000   0.0000   0.0000  24.8920 " ConfE="      -5945.5906" DelE="         -0.3497"
Ni    -3.53160069    0.03808406   -0.04080101       1
Cr    -0.00061486    0.03127103   -3.67372205       2
Ni     3.56056773    0.01664842   -0.04650214       3
Co     0.01946395   -0.00663601    3.52331082       4
Ni     0.01136483   -3.56675533   -0.03166122       5
Ni    -0.00663501    3.56935504   -0.03872733       6
Cr    -1.60965569   -1.65041925   -0.00230187       7
Ni    -1.72106913    1.76286474   -0.03860294       8
Co    -0.02523096   -1.68252208   -1.73211413       9
Ni     0.00606251    1.78752399   -1.81325935      10
Co    -1.65119316    0.00854321    1.69079402      11
Ni     1.75504451    0.02598821   -1.82720764      12
Cr     1.74740893    0.00785089    1.75779068      13
Cr     0.03350800   -1.77341588    1.75304774      14
Cr     0.01278655    1.76927504    1.81937014      15
Cr     1.67870110   -1.66582041   -0.00898571      16
Cr     1.61507324    1.62132599    0.01937825      17
Cr    -1.70988655   -0.00395077   -1.80556514      18
