          18
Lattice="  24.8920   0.0000   0.0000   0.0000  24.8920   0.0000   0.0000   0.0000  24.8920 " ConfE="      -5932.4333" DelE="          0.0000"
Co    -3.50215327    0.03184562   -0.04378039       1
Ni     0.03520924   -3.44458910    0.03831796       2
Cr     3.55983421    0.05042411    0.10392621       3
Cr    -0.01949774    3.66166720   -0.02149141       4
Co     0.00858052    0.04008429   -3.56305006       5
Co     0.01489716    0.09638755    3.54983872       6
Cr    -1.75170246   -0.11084868   -1.73941686       7
Ni    -1.76825587    0.02655269    1.73044635       8
Cr     0.07409507   -1.70290761   -1.73895293       9
Cr    -0.00652748   -1.66636642    1.76627608      10
Cr    -1.75745956    1.83682699   -0.06489676      11
Co     1.87213320   -1.70258840    0.04672501      12
Ni     1.80020487    1.85465227    0.02145877      13
Cr     0.00702583    1.78416645   -1.78315073      14
Co    -0.02496292    1.87835974    1.74820914      15
Ni     1.81041668    0.06521719   -1.75283531      16
Cr     1.73136893    0.11485648    1.83146861      17
Co     0.00000000    0.00000000    0.00000000      18
          18
Lattice="  24.8920   0.0000   0.0000   0.0000  24.8920   0.0000   0.0000   0.0000  24.8920 " ConfE="      -5931.8474" DelE="          0.5858"
Co    -3.44568892    0.00804228   -0.02553936       1
Ni     0.04498339   -3.41369268    0.04112429       2
Cr     3.57279480    0.03520583    0.10094736       3
Cr    -0.04525090    3.65771167   -0.01917798       4
Co     0.02091961    0.04250934   -3.61957812       5
Co     0.04104976    0.10023389    3.60123905       6
Cr    -1.83062506   -0.07180424   -1.92509544       7
Ni    -1.80037425    0.08890503    1.89468602       8
Cr     0.18090563   -1.70487511   -1.90309465       9
Cr     0.03409689   -1.65707185    1.91240578      10
Cr    -1.71398634    1.74685751   -0.04575993      11
Co     1.79011184   -1.65049735    0.05887702      12
Ni     1.75814576    1.81456645    0.01894140      13
Cr    -0.02880862    1.62556132   -1.74244396      14
Co    -0.02691089    1.85766896    1.75501713      15
Ni     1.81986442    0.06545057   -1.75009201      16
Cr     1.68058210    0.09674947    1.78857739      17
Co    -0.76387115   -0.75318392   -0.05299321      18
          18
Lattice="  24.8920   0.0000   0.0000   0.0000  24.8920   0.0000   0.0000   0.0000  24.8920 " ConfE="      -5932.5620" DelE="         -0.1287"
Co    -3.54416539    0.07818934   -0.02909521       1
Ni     0.03049222   -3.48335501    0.03620623       2
Cr     3.59114703    0.05194922    0.10131474       3
Cr    -0.02160953    3.68881462   -0.01811439       4
Co     0.01582855    0.04685802   -3.57735733       5
Co     0.02471351    0.10651257    3.56776805       6
Cr    -1.73464839    0.01439398   -1.75904270       7
Ni    -1.73322377    0.08477087    1.74626438       8
Cr     0.05513952   -1.64781200   -1.69419627       9
Cr     0.04171419   -1.60743854    1.71876713      10
Cr    -1.71741471    1.80860230   -0.05478710      11
Co     1.81093432   -1.67328708    0.05411458      12
Ni     1.79111930    1.84234634    0.02473164      13
Cr     0.01900614    1.74050433   -1.74453161      14
Co    -0.00970444    1.86435471    1.72259955      15
Ni     1.78589099    0.06367987   -1.71681076      16
Cr     1.71184273    0.11828757    1.80045859      17
Co    -1.73477005   -1.64974298    0.01666204      18
