          18
Lattice="  24.8920   0.0000   0.0000   0.0000  24.8920   0.0000   0.0000   0.0000  24.8920 " ConfE="      -5936.8052" DelE="          0.0000"
Ni     0.04553110    3.47979113    0.03751719       1
Cr    -3.33022986    0.06452168   -0.01022434       2
Co     0.04232027    0.01451538    3.54973380       3
Co     0.01927609    0.01138071   -3.52134636       4
Cr     0.04947148   -3.56761518    0.03417355       5
Co     3.64782683   -0.03978851    0.04190603       6
Ni     0.04395706    1.77806753    1.77847035       7
Co    -1.73795267    0.04323201    1.68505212       8
Cr    -1.70813414    0.06912654   -1.73345486       9
Co     0.02801804    1.72872398   -1.71702610      10
Ni     0.05457746   -1.79297278   -1.75685240      11
Ni     1.81881254   -0.02099466   -1.74179851      12
Co    -1.67208187   -1.79107116    0.02428378      13
Cr     1.88090207    1.74699339   -0.00477959      14
Co     1.82693715   -0.00043204    1.76158271      15
Cr     0.03669767   -1.72255341    1.80172394      16
Cr     1.77612395   -1.78436108    0.07238351      17
Co     0.00000000    0.00000000    0.00000000      18
          18
Lattice="  24.8920   0.0000   0.0000   0.0000  24.8920   0.0000   0.0000   0.0000  24.8920 " ConfE="      -5936.1962" DelE="          0.6089"
Ni     0.04883087    3.45851035    0.03363604       1
Cr    -3.36449504    0.04057181   -0.00663842       2
Co     0.10067407    0.02357503    3.63741231       3
Co     0.02722372   -0.00291333   -3.56071168       4
Cr     0.04142240   -3.58490600    0.02951445       5
Co     3.65434478   -0.03578328    0.04336779       6
Ni     0.06303469    1.78657765    1.86383519       7
Co    -1.67302229   -0.10477099    1.96908919       8
Cr    -1.73255213    0.00187767   -1.95547377       9
Co     0.11802484    1.76160184   -1.83824732      10
Ni     0.04678268   -1.75901881   -1.73310868      11
Ni     1.78533470   -0.02631248   -1.71397740      12
Co    -1.63185415   -1.66414411    0.03284169      13
Cr     1.78682870    1.68916223    0.00055342      14
Co     1.78103245    0.00766341    1.72274080      15
Cr     0.01719273   -1.68750135    1.78479915      16
Cr     1.71573425   -1.72336438    0.08774525      17
Co    -1.08949745    0.90973887   -0.03605094      18
          18
Lattice="  24.8920   0.0000   0.0000   0.0000  24.8920   0.0000   0.0000   0.0000  24.8920 " ConfE="      -5936.6046" DelE="          0.2005"
Ni     0.07910228    3.52953774    0.02982458       1
Cr    -3.41064872    0.03968745   -0.02256320       2
Co     0.06565317    0.01978923    3.58048934       3
Co     0.02680620    0.01025626   -3.52937196       4
Cr     0.05338632   -3.61952451    0.02849146       5
Co     3.66739293   -0.04381713    0.04665840       6
Ni     0.07362092    1.76499004    1.77137881       7
Co    -1.66856107   -0.01268045    1.72708860       8
Cr    -1.71415036    0.06227512   -1.73407537       9
Co     0.07095595    1.70750544   -1.70653852      10
Ni     0.05603571   -1.76256253   -1.71032252      11
Ni     1.80064320   -0.03374050   -1.69390602      12
Co    -1.62481957   -1.71667435    0.03633895      13
Cr     1.84385625    1.73519857   -0.01219765      14
Co     1.79532682   -0.01105495    1.71067032      15
Cr     0.02535645   -1.70781931    1.77844208      16
Cr     1.75023163   -1.77318466    0.09924517      17
Co    -1.67270225    1.69753387   -0.00009178      18
