          18
Lattice="  24.8920   0.0000   0.0000   0.0000  24.8920   0.0000   0.0000   0.0000  24.8920 " ConfE="      -5924.4891" DelE="          0.0000"
Ni     3.53910491   -0.02945415   -0.03251816       1
Ni    -0.01168574   -0.02685077   -3.60907230       2
Ni    -3.58502988    0.01752471   -0.06190258       3
Cr     0.07391592    0.02052336    3.48620667       4
Co     0.00557956    3.54677450   -0.03332723       5
Co    -0.00545329   -3.51646809    0.02385884       6
Ni     1.78308435    1.73407909   -0.04884075       7
Ni     1.77149124   -1.72986292   -0.00731400       8
Ni     0.05937645    1.74597356    1.71872610       9
Cr     0.06566856   -1.72540501    1.76815343      10
Co     1.74038424    0.01409940   -1.87922951      11
Cr    -1.73108656    1.79002286   -0.06958189      12
Co    -1.76949626   -1.73141205    0.03979668      13
Co     0.00343573    1.78280966   -1.83963491      14
Co    -0.02535578   -1.75864774   -1.79505911      15
Cr    -1.77548947    0.02098665    1.69636046      16
Cr    -1.68671419   -0.06430206   -1.74739314      17
Co     0.00000000    0.00000000    0.00000000      18
          18
Lattice="  24.8920   0.0000   0.0000   0.0000  24.8920   0.0000   0.0000   0.0000  24.8920 " ConfE="      -5923.5367" DelE="          0.9524"
Ni     3.48193225   -0.03306467   -0.01805791       1
Ni    -0.00694187   -0.02819561   -3.59935378       2
Ni    -3.58475924    0.01264780   -0.04626433       3
Cr     0.05317094    0.03649284    3.49700547       4
Co     0.00580708    3.61673754   -0.05605856       5
Co     0.00264152   -3.58590909   -0.01691591       6
Ni     1.74604044    1.77984534   -0.05934303       7
Ni     1.80863425   -1.85979862   -0.09378325       8
Ni    -0.00160773    1.97055830    1.76950342       9
Cr    -0.02115131   -2.03781193    1.72021991      10
Co     1.73131008    0.00284550   -1.84382563      11
Cr    -1.67371402    1.78142727   -0.05140289      12
Co    -1.73384763   -1.73460584    0.04895746      13
Co    -0.00477810    1.76165908   -1.80684785      14
Co    -0.00557605   -1.75547565   -1.76032374      15
Cr    -1.67592731    0.05247063    1.62489033      16
Cr    -1.57077796   -0.08377282   -1.59106785      17
Co     0.80936657   -0.12043991    1.11957104      18
          18
Lattice="  24.8920   0.0000   0.0000   0.0000  24.8920   0.0000   0.0000   0.0000  24.8920 " ConfE="      -5924.0705" DelE="          0.4185"
Ni     3.55709860   -0.03262911   -0.04690014       1
Ni    -0.01375691   -0.02307076   -3.61529613       2
Ni    -3.60714730    0.00792867   -0.06331269       3
Cr     0.01625427    0.03301539    3.53205028       4
Co     0.00519651    3.57422444   -0.04633453       5
Co    -0.00464733   -3.54361367    0.02090833       6
Ni     1.75593967    1.71586025   -0.06929436       7
Ni     1.74286936   -1.73119337   -0.04606835       8
Ni     0.00387780    1.74415788    1.65033463       9
Cr     0.04645343   -1.74042480    1.74961585      10
Co     1.73210566    0.01749776   -1.86501221      11
Cr    -1.73530379    1.77884498   -0.10346830      12
Co    -1.72719149   -1.70452137    0.02717079      13
Co    -0.01032206    1.76253992   -1.82222531      14
Co    -0.02147021   -1.73128759   -1.77747438      15
Cr    -1.70845535    0.00191647    1.59941394      16
Cr    -1.61238083   -0.07458046   -1.64798408      17
Co     1.66978984   -0.05318258    1.75121828      18
