          18
Lattice="  24.8920   0.0000   0.0000   0.0000  24.8920   0.0000   0.0000   0.0000  24.8920 " ConfE="      -5940.4613" DelE="          0.0000"
Ni     0.00629760    0.08615390   -3.52063353       1
Co    -0.00130441    3.63096347   -0.01696501       2
Co    -0.00082515    0.08642569    3.60661527       3
Ni     0.01169511   -3.47690705    0.02579105       4
Cr     3.52603237    0.04831709    0.04708570       5
Cr    -3.56510077    0.05391719    0.00517317       6
Ni     1.73523880    0.07036846   -1.76871338       7
Ni    -1.76021569    0.05168419   -1.76954349       8
Ni     1.76092200    1.81680948   -0.01604018       9
Ni    -1.73913953    1.82672443   -0.02029821      10
Cr    -0.04830075   -1.75244319   -1.75112011      11
Co     0.00066016    1.85303318    1.80824960      12
Cr    -0.00475959   -1.75461877    1.84379314      13
Co     1.77397112   -1.69597486    0.05668881      14
Co    -1.80458257   -1.71010902    0.03558966      15
Ni     1.74480172    0.07660778    1.81092844      16
Ni    -1.76354264    0.06757507    1.78975404      17
Co     0.00000000    0.00000000    0.00000000      18
          18
Lattice="  24.8920   0.0000   0.0000   0.0000  24.8920   0.0000   0.0000   0.0000  24.8920 " ConfE="      -5939.3643" DelE="          1.0969"
Ni     0.00530281    0.08488197   -3.45713362       1
Co    -0.01954725    3.54393086   -0.04469797       2
Co    -0.00958311    0.09875105    3.57850251       3
Ni     0.01054574   -3.48518713    0.00633588       4
Cr     3.64191077    0.03584689    0.05637878       5
Cr    -3.66291060    0.04814471    0.02565952       6
Ni     1.90594642    0.03693266   -1.78027800       7
Ni    -1.94392614    0.00865377   -1.79121165       8
Ni     1.94782121    1.83617317    0.01843305       9
Ni    -1.94776222    1.87710542    0.03703108      10
Cr    -0.03724723   -1.61969841   -1.65732553      11
Co    -0.00289191    1.83152996    1.71023059      12
Cr     0.00331376   -1.68850303    1.72043732      13
Co     1.72545974   -1.64868074    0.03733531      14
Co    -1.77889709   -1.68181331    0.00780784      15
Ni     1.73473519    0.09937110    1.75414352      16
Ni    -1.74293370    0.08405780    1.71637701      17
Co    -0.03155733    0.97935140   -0.89163281      18
          18
Lattice="  24.8920   0.0000   0.0000   0.0000  24.8920   0.0000   0.0000   0.0000  24.8920 " ConfE="      -5940.4816" DelE="         -0.0203"
Ni     0.00044786    0.05959789   -3.55667083       1
Co     0.01837634    3.66601225    0.02650801       2
Co    -0.00090924    0.08948614    3.62025026       3
Ni     0.01034386   -3.49865893    0.02332061       4
Cr     3.56130270    0.04836635    0.05642973       5
Cr    -3.58792421    0.04750054    0.01592480       6
Ni     1.71371553    0.04370732   -1.72555193       7
Ni    -1.74606161    0.04271753   -1.74757851       8
Ni     1.77579848    1.81127574    0.00531027       9
Ni    -1.74005591    1.81123652    0.00761132      10
Cr    -0.05972933   -1.73201377   -1.73614647      11
Co     0.00845744    1.85703229    1.79183556      12
Cr     0.01297184   -1.76870258    1.84741158      13
Co     1.68629052   -1.65568071    0.07221709      14
Co    -1.73678628   -1.68473562    0.02799920      15
Ni     1.71687576    0.08132988    1.79279834      16
Ni    -1.71501655    0.05953422    1.75845166      17
Co     0.00798109    1.86852948   -1.79000162      18
