          18
Lattice="  24.8920   0.0000   0.0000   0.0000  24.8920   0.0000   0.0000   0.0000  24.8920 " ConfE="      -5929.6126" DelE="          0.0000"
Ni    -0.00667495    0.00837985   -3.42698917       1
Ni     3.45948158    0.00065741    0.03136224       2
Ni    -0.06820453    3.57696706    0.08449978       3
Ni    -0.05907158   -0.01408318    3.63958722       4
Ni    -0.04832182   -3.55895168    0.07946386       5
Co    -3.60222386   -0.00266255    0.05767075       6
Ni    -1.82907954    1.79211148    0.07350090       7
Co    -0.05659203    1.79673298   -1.65845562       8
Cr     1.69586962    1.75144586   -0.05058301       9
Co     0.03328998   -1.76205985   -1.67551661      10
Cr     1.71840321   -1.71123633    0.03039970      11
Cr    -1.87348907   -0.03190560   -1.65681824      12
Co    -1.79247814   -0.04245962    1.79090583      13
Cr    -1.83468654   -1.75459744    0.05013698      14
Cr     1.69058679   -0.00205818    1.79963215      15
Co     0.02349907    1.70090299    1.78761156      16
Cr    -0.06811660   -1.71846799    1.78900128      17
Co     0.00000000    0.00000000    0.00000000      18
          18
Lattice="  24.8920   0.0000   0.0000   0.0000  24.8920   0.0000   0.0000   0.0000  24.8920 " ConfE="      -5928.9792" DelE="          0.6335"
Ni    -0.01289005    0.01530251   -3.41764248       1
Ni     3.47156843    0.00749431    0.04542398       2
Ni    -0.07465539    3.61783585    0.09536798       3
Ni    -0.04887847   -0.01111289    3.62846034       4
Ni    -0.06344184   -3.61174544    0.10381785       5
Co    -3.59935954    0.00360443    0.04871656       6
Ni    -1.80300445    1.78257376    0.08115390       7
Co    -0.12809291    1.89911918   -1.68238180       8
Cr     1.76368041    1.94096780    0.00083864       9
Co    -0.06331931   -1.90297794   -1.67236813      10
Cr     1.77064160   -1.87142586    0.07859593      11
Cr    -1.73039207   -0.01510787   -1.57720864      12
Co    -1.75333984   -0.05460282    1.75796923      13
Cr    -1.79932314   -1.73337674    0.05547938      14
Cr     1.66255389    0.00683625    1.69682126      15
Co     0.07452398    1.65672025    1.70305383      16
Cr    -0.04054575   -1.66930509    1.71435448      17
Co     1.06800539   -0.00182932   -0.95816917      18
          18
Lattice="  24.8920   0.0000   0.0000   0.0000  24.8920   0.0000   0.0000   0.0000  24.8920 " ConfE="      -5929.2822" DelE="          0.3304"
Ni    -0.02868173    0.00556797   -3.48218218       1
Ni     3.53592481   -0.00473784    0.07814989       2
Ni    -0.06741032    3.58319504    0.08137927       3
Ni    -0.06045636   -0.01603345    3.66484739       4
Ni    -0.06196561   -3.57470839    0.08986572       5
Co    -3.61713033   -0.00233936    0.05519461       6
Ni    -1.81475761    1.76636745    0.07240698       7
Co    -0.07501313    1.77288821   -1.64590516       8
Cr     1.65402433    1.70437899    0.00323096       9
Co    -0.04872257   -1.73761306   -1.61592404      10
Cr     1.65663355   -1.66611414    0.07506664      11
Cr    -1.82258053   -0.01895490   -1.63339799      12
Co    -1.76537532   -0.06496669    1.76335337      13
Cr    -1.81212692   -1.71827544    0.06431143      14
Cr     1.67210164    0.00164868    1.77240666      15
Co     0.05057549    1.63899073    1.72318662      16
Cr    -0.08826939   -1.69178031    1.78298938      17
Co     1.66911853   -0.01645231   -1.59425450      18
