          18
Lattice="  24.8920   0.0000   0.0000   0.0000  24.8920   0.0000   0.0000   0.0000  24.8920 " ConfE="      -5944.6619" DelE="          0.0000"
Co     0.00689063   -3.52559481    0.04060189       1
Cr    -0.02137002    0.01421801   -3.53600064       2
Cr     0.03115328    3.54065140    0.01174033       3
Cr     0.00493295    0.06934507    3.55314996       4
Cr    -3.51387877    0.08921480    0.02788040       5
Cr     3.46204555   -0.03709288    0.01752825       6
Ni    -1.73764278   -1.75179729   -0.01263473       7
Co     1.76227494   -1.77574471    0.05361540       8
Co    -1.72408421    0.01019321   -1.77286147       9
Ni     1.71530974   -0.04963747   -1.78552483      10
Cr    -0.02589915   -1.75668029    1.83829943      11
Ni     0.00270466    1.81001676   -1.77325048      12
Cr     0.03667779    1.78724584    1.80395081      13
Ni    -1.76417787    0.02939848    1.78923062      14
Co     1.75033643    0.01378387    1.81917621      15
Cr    -1.76249713    1.81515856    0.00639654      16
Ni     1.77620867    1.77749340    0.01489542      17
Ni     0.00000000    0.00000000    0.00000000      18
          18
Lattice="  24.8920   0.0000   0.0000   0.0000  24.8920   0.0000   0.0000   0.0000  24.8920 " ConfE="      -5944.0165" DelE="          0.6455"
Co     0.01383407   -3.48338811    0.03340970       1
Cr     0.00140606   -0.02498941   -3.45207967       2
Cr     0.03176072    3.53964162   -0.00412301       3
Cr    -0.00526961    0.04462125    3.54253707       4
Cr    -3.59182961    0.12250046    0.03881465       5
Cr     3.57706379    0.05764131    0.03071615       6
Ni    -1.90714613   -1.78325413    0.04530979       7
Co     1.96718875   -1.80213964    0.09303325       8
Co    -1.90533278    0.08663609   -1.71493165       9
Ni     1.90393521    0.04544611   -1.79532704      10
Cr     0.02745128   -1.62361798    1.65669956      11
Ni    -0.00023957    1.71374404   -1.71116110      12
Cr     0.03187974    1.66935528    1.70976923      13
Ni    -1.77921153    0.01776807    1.74401337      14
Co     1.72101826    0.00967619    1.75159733      15
Cr    -1.74990690    1.77325924    0.00098248      16
Ni     1.77788903    1.76554057    0.00989616      17
Ni     0.02170948   -0.99991140   -0.98165664      18
          18
Lattice="  24.8920   0.0000   0.0000   0.0000  24.8920   0.0000   0.0000   0.0000  24.8920 " ConfE="      -5944.7048" DelE="         -0.0428"
Co     0.00797080   -3.57509413    0.05863291       1
Cr    -0.00125726    0.05390436   -3.56692379       2
Cr     0.03127864    3.55924714    0.00678190       3
Cr     0.00167858    0.06039056    3.57284660       4
Cr    -3.54535047    0.10971698    0.04043692       5
Cr     3.52939912    0.03253387    0.02700340       6
Ni    -1.73040182   -1.72223699    0.02268397       7
Co     1.72386769   -1.73158530    0.07323876       8
Co    -1.74130467    0.05160611   -1.70553669       9
Ni     1.74663181   -0.00099028   -1.75153423      10
Cr     0.05417471   -1.66936544    1.73784118      11
Ni    -0.00097805    1.77267523   -1.73706313      12
Cr     0.03458434    1.72656148    1.76169346      13
Ni    -1.73274084    0.02652779    1.75712446      14
Co     1.70808473    0.02426844    1.78664129      15
Cr    -1.72898881    1.79494218    0.01311631      16
Ni     1.74797720    1.76356888    0.01963855      17
Ni    -0.00478952   -1.73005795   -1.73832974      18
