          18
Lattice="  24.8920   0.0000   0.0000   0.0000  24.8920   0.0000   0.0000   0.0000  24.8920 " ConfE="      -5940.9034" DelE="          0.0000"
Ni    -0.01033202   -0.03055412    3.49295471       1
Ni     3.54313529   -0.07402633   -0.04496334       2
Ni     0.01410554   -0.08466811   -3.64472540       3
Cr     0.03062681    3.48502078   -0.08916353       4
Co    -3.47297311   -0.06148202   -0.05609389       5
Cr     0.06024311   -3.73555464   -0.04988996       6
Co    -1.66355927   -0.05064303    1.65379036       7
Cr    -1.68735093    1.72668678    0.02412843       8
Cr     1.73558468   -0.06563798    1.70740105       9
Ni    -1.73193188   -0.05509532   -1.84556751      10
Co     1.70112397    1.72510465    0.00793411      11
Ni     1.75744334   -0.06943063   -1.83845628      12
Cr     0.05708197   -1.91155044    1.75954834      13
Cr    -1.69330056   -1.86810193   -0.05675643      14
Co     1.74349422   -1.87807673   -0.09396615      15
Cr     0.04044799   -1.90055145   -1.89607736      16
Cr     0.05232350    1.77824400   -1.91669516      17
Cr     0.00000000    0.00000000    0.00000000      18
          18
Lattice="  24.8920   0.0000   0.0000   0.0000  24.8920   0.0000   0.0000   0.0000  24.8920 " ConfE="      -5936.8960" DelE="          4.0073"
Ni    -0.02419876    0.01324552    3.53412618       1
Ni     3.61823589   -0.01515155   -0.04596998       2
Ni     0.05467434   -0.10021761   -3.56810765       3
Cr     0.01247276    3.53548539   -0.12653947       4
Co    -3.49697952   -0.03573686   -0.05141315       5
Cr     0.07870511   -3.85252484   -0.10446569       6
Co    -1.56820095   -0.09515427    1.57502967       7
Cr    -1.53183892    1.65117967   -0.02225819       8
Cr     1.71628867    0.13671148    1.66678416       9
Ni    -1.74718546   -0.07251805   -1.82935312      10
Co     1.72460775    1.88484261    0.02434143      11
Ni     0.56507206    0.10690526   -0.99897566      12
Cr    -0.13756088   -2.01204049    2.27647068      13
Cr    -1.91651270   -1.84736612   -0.03453466      14
Co     2.11664705   -1.71698503   -0.75776384      15
Cr    -0.03682953   -2.02514041   -1.96694676      16
Cr     0.03071322    2.00178663   -2.07288607      17
Cr     0.42891878   -1.56447136    0.61102252      18
          18
Lattice="  24.8920   0.0000   0.0000   0.0000  24.8920   0.0000   0.0000   0.0000  24.8920 " ConfE="      -5941.0134" DelE="         -0.1100"
Ni    -0.01762023   -0.02985335    3.49069932       1
Ni     3.57401136   -0.05879767   -0.03317832       2
Ni     0.01095611   -0.08446444   -3.64099201       3
Cr     0.03370663    3.45996495   -0.09415857       4
Co    -3.51255588   -0.05584238   -0.06136938       5
Cr     0.06033950   -3.66721705   -0.04894942       6
Co    -1.71288250   -0.05726352    1.67381212       7
Cr    -1.69501314    1.69430408    0.04091200       8
Cr     1.73554393   -0.02826956    1.71572380       9
Ni    -1.75713247   -0.04797012   -1.85168582      10
Co     1.72066475    1.72430596    0.00306929      11
Ni     0.00997048   -0.06079359   -0.06584152      12
Cr     0.00766296   -1.88440946    1.75886055      13
Cr    -1.76145608   -1.84621982   -0.03676869      14
Co     1.78308816   -0.07569845   -1.83131355      15
Cr     0.04045637   -1.86715086   -1.88705566      16
Cr     0.07413381    1.74261795   -1.89668559      17
Cr     1.80754455   -1.83051368   -0.01339398      18
