          18
Lattice="  24.8920   0.0000   0.0000   0.0000  24.8920   0.0000   0.0000   0.0000  24.8920 " ConfE="      -5929.5960" DelE="          0.0000"
Co     0.06073141   -0.05567810   -3.53006943       1
Ni    -3.49530928    0.01857897    0.01603825       2
Cr     0.01938438    0.07795691    3.52308396       3
Ni     3.55919089   -0.00270469    0.01897675       4
Cr    -0.01848807   -3.59041668    0.02155837       5
Cr     0.05885525    3.52906776    0.07354257       6
Co     0.01126110   -1.81194246   -1.79133349       7
Ni    -0.01162828    1.73860606   -1.75090200       8
Ni    -1.74212826   -1.75788740    0.00867126       9
Ni    -1.73880798    1.76642337    0.01702120      10
Cr     1.79333808   -0.03069817   -1.81079732      11
Co    -1.78989077    0.02996943    1.84215665      12
Co     1.82447857    0.03629191    1.84181428      13
Ni     1.77778100   -1.77496613    0.00963849      14
Ni     1.78699666    1.75697723    0.02183731      15
Ni     0.00814669   -1.75169782    1.79490750      16
Co     0.03379833    1.76984389    1.85588611      17
Ni     0.00000000    0.00000000    0.00000000      18
          18
Lattice="  24.8920   0.0000   0.0000   0.0000  24.8920   0.0000   0.0000   0.0000  24.8920 " ConfE="      -5928.9637" DelE="          0.6322"
Co     0.04795557   -0.05187819   -3.48508881       1
Ni    -3.42627707    0.02472971   -0.00382553       2
Cr     0.02355745    0.08498679    3.52881265       3
Ni     3.54084127   -0.00394052    0.00587203       4
Cr    -0.00920596   -3.64959531    0.05163691       5
Cr     0.07405412    3.59913133    0.09151567       6
Co     0.04964684   -1.99656964   -1.84839212       7
Ni     0.03186248    1.92624758   -1.77130689       8
Ni    -1.78419521   -1.90702518    0.07316977       9
Ni    -1.74901587    1.90145827    0.05445319      10
Cr     1.70062087   -0.02933384   -1.76944477      11
Co    -1.75337242    0.03488905    1.80201595      12
Co     1.77946326    0.03578298    1.81134416      13
Ni     1.71860488   -1.75540602    0.00026456      14
Ni     1.74280942    1.74835888    0.01434558      15
Ni    -0.00485112   -1.74591854    1.78290549      16
Co     0.01995204    1.75142183    1.83243065      17
Ni    -0.69841630   -0.03257170   -0.78654102      18
          18
Lattice="  24.8920   0.0000   0.0000   0.0000  24.8920   0.0000   0.0000   0.0000  24.8920 " ConfE="      -5929.5942" DelE="          0.0017"
Co     0.08929358   -0.04910567   -3.58553114       1
Ni    -3.51986127    0.01506808    0.04178035       2
Cr     0.02092175    0.09227008    3.53083984       3
Ni     3.56567426   -0.00759291    0.02420503       4
Cr    -0.01428649   -3.62419492    0.04889012       5
Cr     0.07288849    3.56756145    0.09431139       6
Co     0.04143583   -1.81916553   -1.77858036       7
Ni     0.02910207    1.75291132   -1.71292550       8
Ni    -1.71220961   -1.75054270    0.04025640       9
Ni    -1.69584688    1.75907547    0.05451127      10
Cr     1.74200482   -0.03899185   -1.76595329      11
Co    -1.77052724    0.03260639    1.82477273      12
Co     1.81089143    0.03713347    1.84079734      13
Ni     1.73841586   -1.74436699    0.02268189      14
Ni     1.75326829    1.72534706    0.03775158      15
Ni     0.00930337   -1.71924601    1.78283201      16
Co     0.03456290    1.74633393    1.86223618      17
Ni    -1.68371821   -0.00184789   -1.72884505      18
