          18
Lattice="  24.8920   0.0000   0.0000   0.0000  24.8920   0.0000   0.0000   0.0000  24.8920 " ConfE="      -5934.7832" DelE="          0.0000"
Cr     0.05039252    0.11117783    3.53201633       1
Cr     0.04793034   -3.23184636    0.05808274       2
Ni     0.03151797    0.17561753   -3.60803050       3
Cr     0.08546362    3.71707914   -0.11357778       4
Ni    -3.51465591    0.16565213   -0.01002152       5
Co     3.57858948    0.16987443   -0.04929083       6
Ni    -1.72189548    0.12277350    1.78404203       7
Ni     1.77530026    0.10499634    1.74965185       8
Co    -1.65802635   -1.63026273    0.03377715       9
Ni     1.83770960   -1.61090721   -0.03708411      10
Co     0.06742820    1.94366313    1.73247199      11
Co     0.10352020   -1.64723666   -1.88662791      12
Cr     0.01320500    1.90759665   -1.80268232      13
Ni    -1.72893284    1.90132536   -0.01320562      14
Ni     1.80168928    1.89279842   -0.05069722      15
Ni    -1.71954228    0.15212944   -1.80507157      16
Cr     1.81214052    0.17832637   -1.84043918      17
Cr     0.00000000    0.00000000    0.00000000      18
          18
Lattice="  24.8920   0.0000   0.0000   0.0000  24.8920   0.0000   0.0000   0.0000  24.8920 " ConfE="      -5934.0291" DelE="          0.7541"
Cr     0.05119863    0.20809025    3.51551125       1
Cr     0.09083800   -3.32264757    0.01279295       2
Ni     0.02323016    0.16682471   -3.59604950       3
Cr     0.08793008    3.69347110   -0.10165691       4
Ni    -3.57083970    0.18457728   -0.02251066       5
Co     3.64638026    0.19349049   -0.06582267       6
Ni    -1.88638471    0.21012512    1.81229928       7
Ni     1.93810600    0.19763039    1.75079112       8
Co    -1.82923291   -1.64921123    0.00744910       9
Ni     1.94293322   -1.61288279   -0.04711788      10
Co     0.06940420    1.86703206    1.70011335      11
Co     0.08745236   -1.58388799   -1.73624075      12
Cr     0.01280958    1.85820914   -1.74829890      13
Ni    -1.72040551    1.87153381   -0.01066610      14
Ni     1.81111767    1.87972944   -0.05448606      15
Ni    -1.70172648    0.14297166   -1.74678897      16
Cr     1.74077786    0.14563319   -1.75885714      17
Cr    -0.00425748   -0.72813211    0.84311553      18
          18
Lattice="  24.8920   0.0000   0.0000   0.0000  24.8920   0.0000   0.0000   0.0000  24.8920 " ConfE="      -5934.7632" DelE="          0.0199"
Cr     0.05107964    0.20192502    3.57357160       1
Cr     0.06989679   -3.35444253   -0.00287428       2
Ni     0.02767755    0.17912250   -3.62064745       3
Cr     0.09134044    3.71976406   -0.11905092       4
Ni    -3.53760930    0.18405654   -0.01884449       5
Co     3.60668193    0.18542395   -0.05835856       6
Ni    -1.72713458    0.17696193    1.74825878       7
Ni     1.79467517    0.17093922    1.71716761       8
Co    -1.64489580   -1.61173703    0.03579169       9
Ni     1.81066477   -1.56641952   -0.04146017      10
Co     0.07546887    1.93451901    1.71532254      11
Co     0.10581857   -1.60221644   -1.81727603      12
Cr     0.01703168    1.87873910   -1.77387240      13
Ni    -1.71922194    1.91187843   -0.02973775      14
Ni     1.80680792    1.90397658   -0.07418233      15
Ni    -1.69251354    0.16324999   -1.78010617      16
Cr     1.77995711    0.18003910   -1.83098929      17
Cr     0.02161045   -1.55346449    1.71109707      18
