          18
Lattice="  24.8920   0.0000   0.0000   0.0000  24.8920   0.0000   0.0000   0.0000  24.8920 " ConfE="      -5923.3641" DelE="          0.0000"
Ni    -0.06614265   -3.58765239   -0.01165015       1
Cr    -0.04433766    3.48433503    0.08947430       2
Co    -0.05621988    0.02353708    3.46916859       3
Ni    -3.62355481   -0.02652037   -0.01175787       4
Cr     3.43940433    0.00346990   -0.01174307       5
Cr    -0.04608846    0.00677838   -3.49198923       6
Ni    -1.84502454    1.74709627    0.01055973       7
Ni    -1.81297557   -0.02166167    1.76378697       8
Ni     1.66773727    1.76086987    0.06502245       9
Ni    -0.07196180   -1.82202976    1.76580795      10
Ni    -1.83443054   -1.81124139   -0.01158278      11
Cr     1.69178309   -0.04667794    1.74050386      12
Ni     1.70750549   -1.80230754   -0.02597710      13
Ni    -1.84416676   -0.03560363   -1.77621677      14
Co     0.00160066   -1.81679718   -1.83144587      15
Co    -0.07691554    1.74622136   -1.78761721      16
Cr     1.70094912    0.06497052   -1.79698621      17
Co     0.00000000    0.00000000    0.00000000      18
          18
Lattice="  24.8920   0.0000   0.0000   0.0000  24.8920   0.0000   0.0000   0.0000  24.8920 " ConfE="      -5922.8515" DelE="          0.5126"
Ni    -0.06852758   -3.57535893   -0.00427659       1
Cr    -0.02121792    3.36793561    0.14322102       2
Co    -0.07675933    0.03495267    3.43875021       3
Ni    -3.66969969   -0.04409167   -0.01644575       4
Cr     3.50931014   -0.00185378   -0.03873050       5
Cr    -0.05005603    0.01613978   -3.52644929       6
Ni    -1.96909797    1.74164348   -0.00768450       7
Ni    -1.96377006   -0.05982778    1.81891643       8
Ni     1.87495008    1.79655982   -0.02459952       9
Ni    -0.08293824   -1.75857282    1.74940767      10
Ni    -1.82656313   -1.77271758   -0.00242892      11
Cr     1.84885374   -0.06275730    1.78441363      12
Ni     1.66217313   -1.71157764   -0.01913629      13
Ni    -1.83357005   -0.02963276   -1.75570825      14
Co    -0.00377066   -1.77874050   -1.81746181      15
Co    -0.05728205    1.70041122   -1.69079676      16
Cr     1.66783368    0.07234624   -1.80209555      17
Co     0.04039455    0.64432237    0.76550679      18
          18
Lattice="  24.8920   0.0000   0.0000   0.0000  24.8920   0.0000   0.0000   0.0000  24.8920 " ConfE="      -5923.4501" DelE="         -0.0860"
Ni    -0.05851777   -3.57974676   -0.01294474       1
Cr    -0.04294618    3.49577970    0.06246025       2
Co    -0.07970167   -0.00007066    3.54298192       3
Ni    -3.64484912   -0.03232615   -0.01919343       4
Cr     3.49816426    0.00832480   -0.04216203       5
Cr    -0.05985919    0.00760456   -3.54486960       6
Ni    -1.86137802    1.72862059   -0.00897124       7
Ni    -1.83391659   -0.04167424    1.76000237       8
Ni     1.67393439    1.69216054    0.01105424       9
Ni    -0.06092934   -1.75074653    1.74139535      10
Ni    -1.82095514   -1.79220086   -0.01983254      11
Cr     1.71565995   -0.04767789    1.74142261      12
Ni     1.67666447   -1.72415365   -0.04025113      13
Ni    -1.83206855   -0.04122451   -1.77180815      14
Co     0.00900005   -1.79568253   -1.84559392      15
Co    -0.06922610    1.69361168   -1.75614840      16
Cr     1.67531724    0.05883275   -1.84992230      17
Co    -0.06142028    1.70583384    1.75362402      18
