          18
Lattice="  24.8920   0.0000   0.0000   0.0000  24.8920   0.0000   0.0000   0.0000  24.8920 " ConfE="      -5945.3083" DelE="          0.0000"
Ni     3.30916711    0.00702173    0.05649903       1
Co    -0.14334202    0.02405388   -3.44758824       2
Co    -0.15847776   -3.55762353    0.13495282       3
Cr    -3.75377417    0.03109347    0.08817200       4
Cr    -0.18947012    3.55317986    0.08420673       5
Cr    -0.11829113    0.01404237    3.67896932       6
Ni    -0.12304006   -1.77037019   -1.68951549       7
Ni    -1.94555371   -0.01030613   -1.69184097       8
Co    -0.12668617    1.70594244   -1.66299835       9
Co     1.60355304   -1.77708126    0.13044934      10
Co     1.57948727    1.75072933    0.05305548      11
Ni    -1.91786420   -1.74473628    0.07612320      12
Ni    -0.13305429    1.77276367    1.85332248      13
Co     1.62206796   -0.00895344    1.89977595      14
Cr    -1.87802096    1.70637835    0.07657561      15
Co    -0.18046601   -1.74332812    1.87436489      16
Cr    -1.85482541   -0.00668471    1.85052737      17
Cr     0.00000000    0.00000000    0.00000000      18
          18
Lattice="  24.8920   0.0000   0.0000   0.0000  24.8920   0.0000   0.0000   0.0000  24.8920 " ConfE="      -5944.9091" DelE="          0.3991"
Ni     3.29346114    0.00706104    0.06036805       1
Co    -0.11861920    0.01854278   -3.41055171       2
Co    -0.17214069   -3.61501618    0.13778461       3
Cr    -3.71149584    0.03438138    0.07633816       4
Cr    -0.22021876    3.64736194    0.13300223       5
Cr    -0.11878042    0.01979881    3.65795479       6
Ni    -0.17566479   -1.89489911   -1.71671233       7
Ni    -1.87535383   -0.01553964   -1.67514157       8
Co    -0.20232382    1.84128902   -1.67299713       9
Co     1.60336768   -1.85118194    0.14752655      10
Co     1.59885264    1.86604454    0.10256897      11
Ni    -1.88901965   -1.74102714    0.06308363      12
Ni    -0.13583861    1.76796590    1.82235735      13
Co     1.58248499   -0.01092385    1.81876171      14
Cr    -1.81469350    1.66579796    0.06847856      15
Co    -0.17566477   -1.71675709    1.83336690      16
Cr    -1.80435812   -0.02270196    1.80900116      17
Cr     0.78802921    0.00646402   -0.84203860      18
          18
Lattice="  24.8920   0.0000   0.0000   0.0000  24.8920   0.0000   0.0000   0.0000  24.8920 " ConfE="      -5945.4803" DelE="         -0.1720"
Ni     3.39115844    0.00078546    0.09544419       1
Co    -0.17798546    0.01158104   -3.48680290       2
Co    -0.16085547   -3.58527862    0.13185860       3
Cr    -3.74913069    0.03137800    0.08610362       4
Cr    -0.20536990    3.58287883    0.10788916       5
Cr    -0.12090632    0.01537130    3.67269394       6
Ni    -0.14552291   -1.76792260   -1.65909325       7
Ni    -1.92044236   -0.01535295   -1.67007658       8
Co    -0.17775380    1.71025385   -1.61551492       9
Co     1.59686030   -1.76271729    0.13204018      10
Co     1.57344901    1.72861641    0.06104974      11
Ni    -1.92065275   -1.74504230    0.08389744      12
Ni    -0.13627921    1.74415276    1.81912750      13
Co     1.61179986   -0.02093735    1.84543715      14
Cr    -1.88253019    1.68870507    0.08264267      15
Co    -0.18605763   -1.72701642    1.86038750      16
Cr    -1.81656295   -0.02395232    1.81345910      17
Cr     1.53105433    0.04344708   -1.60417067      18
