          18
Lattice="  24.8920   0.0000   0.0000   0.0000  24.8920   0.0000   0.0000   0.0000  24.8920 " ConfE="      -5929.2671" DelE="          0.0000"
Cr     0.03167996    3.45086580    0.06175817       1
Ni     3.43943069   -0.02089246   -0.04452956       2
Cr    -0.09407706   -3.66324003   -0.02357165       3
Ni    -3.60030342   -0.03944357   -0.02007035       4
Co     0.01489333   -0.09395297   -3.61304893       5
Cr    -0.04455562    0.05572698    3.43226418       6
Ni    -0.01080158    1.73286045   -1.74668560       7
Co    -0.01672443    1.75112177    1.77278423       8
Cr     1.70826711   -0.05598054   -1.83844602       9
Co     1.76582841    0.02852909    1.76513786      10
Ni    -1.83126610    1.73551514   -0.01423223      11
Ni     1.69883347   -1.85009568   -0.04793499      12
Ni    -1.81115344   -1.81598937   -0.02050307      13
Ni    -1.78281028   -0.04242604   -1.80749512      14
Co    -1.86435697   -0.01479383    1.76894229      15
Co    -0.03824036   -1.87659483   -1.84179860      16
Ni    -0.06166344   -1.80083700    1.73701259      17
Ni     0.00000000    0.00000000    0.00000000      18
          18
Lattice="  24.8920   0.0000   0.0000   0.0000  24.8920   0.0000   0.0000   0.0000  24.8920 " ConfE="      -5928.9503" DelE="          0.3168"
Cr     0.04105937    3.40743760    0.02394046       1
Ni     3.39194859   -0.02998732   -0.05755085       2
Cr    -0.09308406   -3.67238704   -0.03079200       3
Ni    -3.59769964   -0.02886402   -0.03257374       4
Co    -0.00701923   -0.09704540   -3.65481172       5
Cr    -0.06144606    0.02974563    3.49127923       6
Ni    -0.06153303    1.75887203   -1.89449543       7
Co    -0.03762157    1.76463654    1.89799502       8
Cr     1.71664667   -0.09566649   -2.01513827       9
Co     1.84771329    0.01510308    1.91498550      10
Ni    -1.76173076    1.70699793   -0.02687825      11
Ni     1.67556305   -1.82407804   -0.07671758      12
Ni    -1.79556469   -1.79965807   -0.03805480      13
Ni    -1.75930925   -0.04303279   -1.81305241      14
Co    -1.85246886   -0.00400644    1.75659517      15
Co    -0.03246720   -1.87123666   -1.86226875      16
Ni    -0.04206072   -1.71675615    1.69011754      17
Ni     0.54666738    0.46640165   -0.01636625      18
          18
Lattice="  24.8920   0.0000   0.0000   0.0000  24.8920   0.0000   0.0000   0.0000  24.8920 " ConfE="      -5929.5942" DelE="         -0.3271"
Cr    -0.01051142    3.51476203    0.02888983       1
Ni     3.48227436   -0.06039233   -0.04121652       2
Cr    -0.09768640   -3.67699434   -0.01653143       3
Ni    -3.60326118   -0.03773134   -0.02364120       4
Co     0.00589367   -0.10190509   -3.65095269       5
Cr    -0.06247816    0.03947067    3.46541829       6
Ni    -0.05429783    1.70011191   -1.77834705       7
Co    -0.04883701    1.69353451    1.79681463       8
Cr     1.65860492   -0.09179127   -1.83137484       9
Co     1.72749153   -0.01566595    1.77537579      10
Ni    -1.77924679    1.70627605   -0.01091029      11
Ni     1.65501595   -1.79716641   -0.04273966      12
Ni    -1.79560952   -1.80334212   -0.02516515      13
Ni    -1.76711812   -0.05464731   -1.79426660      14
Co    -1.85392715   -0.02019303    1.75935118      15
Co    -0.04196407   -1.87196495   -1.84400191      16
Ni    -0.07409653   -1.77204543    1.71741046      17
Ni     1.66986839    1.67254764   -0.02766998      18
