          18
Lattice="  24.8920   0.0000   0.0000   0.0000  24.8920   0.0000   0.0000   0.0000  24.8920 " ConfE="      -5935.9577" DelE="          0.0000"
Co     0.01945062   -0.02728600   -3.47671744       1
Cr     0.01998544    3.39129957    0.06629918       2
Cr    -0.03474359   -0.10215142    3.58128978       3
Co    -0.02550820   -3.52415965    0.02522261       4
Co    -3.52201021   -0.05872406    0.01312074       5
Co     3.53349288   -0.03432601    0.04220141       6
Co    -1.68640583    0.00591395   -1.72905503       7
Cr     1.75043985   -0.01340955   -1.74626073       8
Co    -1.71942898    1.72246693    0.00540791       9
Co     1.74471821    1.71024834   -0.00710693      10
Cr     0.05373342   -1.84233747   -1.70810855      11
Co     0.02049655    1.70023882    1.85025458      12
Co    -0.01048875   -1.80941139    1.80467394      13
Cr    -1.75771431   -1.78451310    0.02659023      14
Co     1.75508852   -1.80165151    0.00454017      15
Co    -1.77645215   -0.04288049    1.81776835      16
Ni     1.77354318   -0.04850195    1.82953780      17
Cr     0.00000000    0.00000000    0.00000000      18
          18
Lattice="  24.8920   0.0000   0.0000   0.0000  24.8920   0.0000   0.0000   0.0000  24.8920 " ConfE="      -5935.3755" DelE="          0.5822"
Co     0.01369307   -0.01751206   -3.39253805       1
Cr     0.04402653    3.43073849    0.10216278       2
Cr    -0.02465863   -0.09220572    3.56973762       3
Co    -0.02376184   -3.54494193    0.01576697       4
Co    -3.59533790   -0.06902885    0.03381518       5
Co     3.59388939   -0.04935010    0.04904557       6
Co    -1.85893459   -0.05079475   -1.75120613       7
Cr     1.91747270   -0.08621941   -1.75351909       8
Co    -1.86959412    1.72418352    0.05843158       9
Co     1.88189354    1.73431287    0.05054417      10
Cr     0.03827623   -1.81020104   -1.66542631      11
Co     0.02664362    1.69566844    1.76723984      12
Co    -0.01060870   -1.76507398    1.74256381      13
Cr    -1.70461847   -1.71322354    0.03565455      14
Co     1.70959413   -1.73165216   -0.03023209      15
Co    -1.73907154   -0.03553582    1.75854066      16
Ni     1.76270122   -0.03805045    1.79343759      17
Cr    -0.00996464    0.65648445   -0.67474524      18
          18
Lattice="  24.8920   0.0000   0.0000   0.0000  24.8920   0.0000   0.0000   0.0000  24.8920 " ConfE="      -5935.6330" DelE="          0.3247"
Co     0.00710892   -0.05776704   -3.52564787       1
Cr     0.03706344    3.47099211    0.10874199       2
Cr    -0.02814498   -0.09855068    3.57096619       3
Co    -0.02688999   -3.55029867    0.02592062       4
Co    -3.56975631   -0.06531485    0.03175251       5
Co     3.58484646   -0.05181351    0.05489420       6
Co    -1.73637537   -0.03283914   -1.70483198       7
Cr     1.82040102   -0.08250025   -1.71262945       8
Co    -1.74203709    1.68990557    0.03675826       9
Co     1.78915011    1.67954069    0.04153760      10
Cr     0.00059973   -1.64717144   -1.54529596      11
Co     0.02206984    1.68061488    1.78260221      12
Co    -0.01668484   -1.78973872    1.77510316      13
Cr    -1.74733102   -1.77918022    0.08140143      14
Co     1.73214627   -1.77751918   -0.00214095      15
Co    -1.75639618   -0.05279525    1.79350205      16
Ni     1.75849566   -0.05920470    1.81215558      17
Cr     0.02292734    1.52957689   -1.52704925      18
