          18
Lattice="  24.8920   0.0000   0.0000   0.0000  24.8920   0.0000   0.0000   0.0000  24.8920 " ConfE="      -5946.3416" DelE="          0.0000"
Ni    -0.02370712   -0.04119631    3.45395212       1
Ni     3.53508641    0.02074177   -0.04436234       2
Ni     0.00710065    0.02802217   -3.62703292       3
Co     0.07422111   -3.48804945   -0.01672905       4
Cr    -3.51699969    0.02180529   -0.05761596       5
Cr    -0.01541444    3.61575974   -0.04540161       6
Ni    -1.71220408   -1.74680485   -0.00306306       7
Cr    -1.76198428    0.02529532    1.73602834       8
Co     1.76919859    0.00378264    1.74971672       9
Ni     1.74770633    1.81142682   -0.02071358      10
Ni    -0.00333973    1.81044670   -1.83708978      11
Ni     0.01573214   -1.73627598   -1.83449491      12
Cr     1.77256295   -1.75859787    0.05796724      13
Ni     1.75669752    0.02521849   -1.81937728      14
Co    -0.00285237    1.83730704    1.73116857      15
Co    -1.76010693    1.81165115   -0.04936956      16
Cr    -1.80082887    0.03976453   -1.79547511      17
Ni     0.00000000    0.00000000    0.00000000      18
          18
Lattice="  24.8920   0.0000   0.0000   0.0000  24.8920   0.0000   0.0000   0.0000  24.8920 " ConfE="      -5945.9051" DelE="          0.4365"
Ni    -0.03282140   -0.05663453    3.38579304       1
Ni     3.57663089    0.03859188   -0.05688705       2
Ni     0.01135186    0.02459074   -3.62038601       3
Co     0.05864320   -3.46766339   -0.01930292       4
Cr    -3.58055681    0.02391660   -0.08272274       5
Cr    -0.02259372    3.62474692   -0.03630510       6
Ni    -1.88533479   -1.79503974   -0.06219169       7
Cr    -1.94099748    0.05520293    1.76248920       8
Co     1.93090388    0.08887230    1.80345491       9
Ni     1.74268383    1.80047293   -0.01470118      10
Ni     0.00107672    1.79168487   -1.80991809      11
Ni     0.01217382   -1.70039779   -1.76909570      12
Cr     1.91162463   -1.79128468    0.00338488      13
Ni     1.75501222    0.03162732   -1.79283977      14
Co    -0.00895960    1.79186656    1.70664497      15
Co    -1.72945824    1.74172050   -0.04179393      16
Cr    -1.74324191    0.03513559   -1.71191410      17
Ni    -0.00597903   -0.62426567    0.64596486      18
          18
Lattice="  24.8920   0.0000   0.0000   0.0000  24.8920   0.0000   0.0000   0.0000  24.8920 " ConfE="      -5946.5368" DelE="         -0.1952"
Ni    -0.02323811   -0.00118065    3.51196552       1
Ni     3.55702619    0.03624204   -0.04650881       2
Ni     0.00801007    0.03028447   -3.63504501       3
Co     0.07073768   -3.54286076   -0.06103382       4
Cr    -3.56099439    0.03421165   -0.08000838       5
Cr    -0.01295430    3.63212252   -0.04971350       6
Ni    -1.71847571   -1.69951575   -0.05159350       7
Cr    -1.71914753    0.08132005    1.64909111       8
Co     1.76712297    0.03847989    1.73013620       9
Ni     1.71431457    1.79294172   -0.02007685      10
Ni    -0.00262037    1.80694785   -1.83366036      11
Ni     0.02199400   -1.70426008   -1.79415728      12
Cr     1.81260306   -1.72148476    0.00691374      13
Ni     1.73304314    0.03752321   -1.78697486      14
Co    -0.01850862    1.77544572    1.70329260      15
Co    -1.72544423    1.75964652   -0.06917823      16
Cr    -1.76315899    0.06077466   -1.75279610      17
Ni     0.00953150   -1.72185549    1.68795090      18
