          23
Lattice="  24.8920   0.0000   0.0000   0.0000  24.8920   0.0000   0.0000   0.0000  24.8920 " ConfE="      -5946.1220" DelE="          0.0000"
Ni    -0.93203620   -1.80188564    2.74482499       1
Ni    -2.66129826   -1.79737614    0.97108447       2
Ni    -0.92287314   -3.65068928    0.99410543       3
Co    -2.72914697   -0.02195151    2.70524691       4
Co     2.56299255   -0.00432017   -2.48100113       5
Ni     2.57004375    1.75197991   -0.76658683       6
Ni     0.81977641    1.80909352   -2.55125141       7
Ni    -2.66581776    1.76534302    0.98707047       8
Ni     0.82501014   -1.78389761   -2.55038530       9
Cr     0.83117586    3.59576946   -0.80668520      10
Co    -0.87666646    1.71718666    2.64163589      11
Cr     0.89065737   -3.59453906   -0.85356534      12
Cr     2.56222931   -1.70060388   -0.76054614      13
Co    -0.92795695    3.59561476    0.96699320      14
Cr    -2.60227980   -0.01871148   -0.72656471      15
Co    -0.91326060   -0.00064163   -2.46580313      16
Cr     2.55918697   -0.02851409    0.94937692      17
Co     0.83849043    0.00059404    2.66043930      18
Ni     0.00000000    0.00000000    0.00000000      19
Ni     0.85081219   -1.93890976    1.03477150      20
Cr    -0.94585600   -1.93347093   -0.84007662      21
Cr    -1.00125723    1.93876164   -0.84741763      22
Cr     0.80447070    1.88851330    1.02135860      23
          23
Lattice="  24.8920   0.0000   0.0000   0.0000  24.8920   0.0000   0.0000   0.0000  24.8920 " ConfE="      -5946.0478" DelE="          0.0741"
Ni    -0.92594707   -1.80023112    2.75127136       1
Ni    -2.67027566   -1.79476980    0.96878798       2
Ni    -0.91147888   -3.62369936    0.98343036       3
Co    -2.73941498   -0.02233815    2.71113028       4
Co     2.58370791    0.00481483   -2.50676150       5
Ni     2.55215460    1.72807493   -0.75897415       6
Ni     0.81556765    1.78836648   -2.52863248       7
Ni    -2.66159033    1.75652228    0.97719818       8
Ni     0.82908190   -1.75373527   -2.52628727       9
Cr     0.83434434    3.60480457   -0.80903875      10
Co    -0.87703306    1.71209696    2.64729480      11
Cr     0.89946192   -3.59428144   -0.86074636      12
Cr     2.56537967   -1.68702027   -0.75867042      13
Co    -0.92019702    3.57596581    0.95766318      14
Cr    -2.67354249   -0.02350250   -0.75092085      15
Co    -0.92107612    0.00268530   -2.44336494      16
Cr     2.55581535   -0.01844769    0.96613116      17
Co     0.85880622    0.00219947    2.69557248      18
Ni    -0.33649786    0.05069862    0.36828963      19
Ni     0.86372300   -1.89891104    1.00504626      20
Cr    -0.91522599   -1.88392005   -0.84763987      21
Cr    -0.99242774    1.92699132   -0.88236689      22
Cr     0.85383930    1.89363453    1.00692341      23
          23
Lattice="  24.8920   0.0000   0.0000   0.0000  24.8920   0.0000   0.0000   0.0000  24.8920 " ConfE="      -5946.6192" DelE="         -0.4972"
Ni    -0.92966740   -1.80085991    2.76263797       1
Ni    -2.71522116   -1.80600011    0.98258842       2
Ni    -0.89914663   -3.56220912    0.96265243       3
Co    -2.77901059   -0.01957678    2.74764551       4
Co     2.61480042   -0.00186609   -2.51993547       5
Ni     2.58671301    1.72012078   -0.77616177       6
Ni     0.83369558    1.77649153   -2.53720312       7
Ni    -2.70668507    1.77404554    0.99205996       8
Ni     0.85306082   -1.74780143   -2.52376886       9
Cr     0.81483891    3.56116002   -0.80200659      10
Co    -0.91225189    1.74336114    2.71016488      11
Cr     0.90288594   -3.55656313   -0.85162862      12
Cr     2.64823486   -1.69829778   -0.77534192      13
Co    -0.91933369    3.53153005    0.94511966      14
Cr    -2.75636900   -0.01648951   -0.78419853      15
Co    -0.90992659    0.00512081   -2.46363297      16
Cr     2.62231610   -0.02522563    0.95788535      17
Co     0.87723085    0.00341688    2.73617640      18
Ni    -0.91877184   -0.02617506    0.95085498      19
Ni     0.85245010   -1.77125176    0.93491498      20
Cr    -0.93115307   -1.72870409   -0.84617311      21
Cr    -0.91318041    1.72216534   -0.79788348      22
Cr     0.81483019    1.70431296    0.93691880      23
