          18
Lattice="  24.8920   0.0000   0.0000   0.0000  24.8920   0.0000   0.0000   0.0000  24.8920 " ConfE="      -5925.3794" DelE="          0.0000"
Ni     3.55485482   -0.09712553   -0.06849216       1
Ni    -3.61023700   -0.04697245    0.03160035       2
Co     0.01945594   -0.00390897   -3.44556386       3
Cr    -0.03576988   -0.04541790    3.60543340       4
Cr     0.01519913   -3.63843103    0.02957796       5
Cr    -0.02251758    3.40678876    0.02069849       6
Ni     1.78979632   -1.83777031   -0.03540483       7
Ni     1.78678725    1.66362703   -0.04922816       8
Ni     0.01305137   -1.78966950   -1.71160928       9
Ni     1.78479541   -0.07693460    1.80207012      10
Ni     0.00955849   -1.83148737    1.78760611      11
Cr     0.01443420    1.66141457   -1.79222304      12
Ni    -1.83143430   -0.04481158   -1.71284222      13
Co    -0.04100598    1.66196663    1.78082225      14
Cr    -1.79892108   -1.89241158    0.03660666      15
Cr    -1.81162313   -0.09089535    1.77819917      16
Cr    -1.79939782    1.74873965   -0.00322697      17
Cr     0.00000000    0.00000000    0.00000000      18
          18
Lattice="  24.8920   0.0000   0.0000   0.0000  24.8920   0.0000   0.0000   0.0000  24.8920 " ConfE="      -5924.6393" DelE="          0.7401"
Ni     3.47361948   -0.09873784   -0.07889281       1
Ni    -3.60874098   -0.04821127    0.01413752       2
Co     0.02220063   -0.01500751   -3.42711763       3
Cr    -0.00900815   -0.04173814    3.58795639       4
Cr    -0.01092989   -3.72923987    0.06089542       5
Cr    -0.04704605    3.53051362    0.05474607       6
Ni     1.79252387   -1.96192448   -0.01969902       7
Ni     1.81316205    1.83813969    0.03897145       8
Ni    -0.02261050   -1.96714195   -1.75219456       9
Ni     1.74502575   -0.08191356    1.72822664      10
Ni     0.02269575   -1.83674981    1.75707385      11
Cr    -0.07169047    1.88407852   -1.77180941      12
Ni    -1.74754225   -0.03753660   -1.69119117      13
Co    -0.05135695    1.61774178    1.66597865      14
Cr    -1.68496184   -1.78709206    0.02497295      15
Cr    -1.74161145   -0.08045796    1.72123564      16
Cr    -1.71845850    1.66776475    0.02185610      17
Cr     0.74331420    0.01232216   -0.80566209      18
          18
Lattice="  24.8920   0.0000   0.0000   0.0000  24.8920   0.0000   0.0000   0.0000  24.8920 " ConfE="      -5925.5741" DelE="         -0.1947"
Ni     3.57995966   -0.09433959   -0.04075223       1
Ni    -3.62269692   -0.04623841    0.03004720       2
Co    -0.03297917   -0.03939845   -3.52778025       3
Cr    -0.03528941   -0.04873618    3.60214461       4
Cr     0.01305144   -3.65744664    0.04040558       5
Cr    -0.03881270    3.46836812    0.02554152       6
Ni     1.78409839   -1.84991145   -0.01343745       7
Ni     1.74057001    1.66036866   -0.00927310       8
Ni    -0.00956425   -1.80114707   -1.68658865       9
Ni     1.75753887   -0.08684971    1.77453252      10
Ni     0.00237535   -1.82381142    1.76870942      11
Cr    -0.04063748    1.67810727   -1.73086329      12
Ni    -1.76959623   -0.04427472   -1.66135514      13
Co    -0.07999148    1.61433071    1.71549921      14
Cr    -1.78323880   -1.87068020    0.04522947      15
Cr    -1.77171950   -0.08423385    1.72972287      16
Cr    -1.75945635    1.71862234    0.02500126      17
Cr     1.71540185   -0.04470129   -1.80319478      18
