          18
Lattice="  24.8920   0.0000   0.0000   0.0000  24.8920   0.0000   0.0000   0.0000  24.8920 " ConfE="      -5942.4154" DelE="          0.0000"
Ni    -0.02522230    3.50834034    0.01305797       1
Cr     3.43102509    0.08026898    0.04092986       2
Ni    -0.05269426   -3.59593283   -0.00978334       3
Co    -3.59165447   -0.05347900    0.01428516       4
Cr     0.00175775   -0.03314576    3.53104754       5
Cr    -0.05082824   -0.04626098   -3.54119966       6
Co    -0.08035039    1.76375454    1.78926202       7
Co    -0.03693954    1.73399292   -1.77888282       8
Co     1.72304225   -0.00972918    1.77648116       9
Ni     1.71068055   -0.02396189   -1.75784396      10
Cr    -1.81476056    1.69862351   -0.01079444      11
Ni     1.70954215   -1.83391527   -0.00567583      12
Ni    -1.79826138   -1.81303749   -0.03667567      13
Cr    -1.77055702   -0.09171208    1.78666587      14
Co    -1.86454117   -0.03467274   -1.80213888      15
Co    -0.06290179   -1.82864001    1.80697160      16
Co    -0.10297429   -1.77862076   -1.85390715      17
Ni     0.00000000    0.00000000    0.00000000      18
          18
Lattice="  24.8920   0.0000   0.0000   0.0000  24.8920   0.0000   0.0000   0.0000  24.8920 " ConfE="      -5941.8315" DelE="          0.5839"
Ni    -0.01945696    3.46955882    0.00735120       1
Cr     3.38149922    0.09919594    0.01397339       2
Ni    -0.04745403   -3.57689961   -0.02605578       3
Co    -3.58981770   -0.04421651    0.00164802       4
Cr    -0.01920631   -0.04905117    3.60940157       5
Cr    -0.07283539   -0.05413931   -3.69416259       6
Co    -0.11965642    1.81738967    1.96028921       7
Co    -0.09071982    1.72631171   -1.96396602       8
Co     1.71525908   -0.05521829    1.95135416       9
Ni     1.68234281   -0.06777508   -1.94289583      10
Cr    -1.65671321    1.56278960   -0.04249612      11
Ni     1.63167127   -1.69556332   -0.03122362      12
Ni    -1.75014049   -1.75488024   -0.06251682      13
Cr    -1.68423708   -0.08932630    1.73619719      14
Co    -1.82174852   -0.01550575   -1.82348193      15
Co    -0.06604275   -1.78631270    1.80246211      16
Co    -0.10606292   -1.74932171   -1.89844409      17
Ni     0.94687743    1.01036627    0.00426743      18
          18
Lattice="  24.8920   0.0000   0.0000   0.0000  24.8920   0.0000   0.0000   0.0000  24.8920 " ConfE="      -5942.4067" DelE="          0.0087"
Ni    -0.05465914    3.55896346    0.02164862       1
Cr     3.48437744   -0.01550377    0.02222661       2
Ni    -0.05784065   -3.60581946   -0.02105071       3
Co    -3.61260252   -0.06006425    0.01491647       4
Cr     0.00010579   -0.05060816    3.57255308       5
Cr    -0.05594900   -0.05863317   -3.59060498       6
Co    -0.10023620    1.72169754    1.76824496       7
Co    -0.08896388    1.68675296   -1.75641398       8
Co     1.67789314   -0.04557015    1.77151956       9
Ni     1.65970116   -0.04603468   -1.75421188      10
Cr    -1.71768282    1.60252710   -0.01372561      11
Ni     1.65452577   -1.79030933   -0.01781111      12
Ni    -1.76533712   -1.77648369   -0.04671743      13
Cr    -1.72364915   -0.10718698    1.74615290      14
Co    -1.86249355   -0.04184247   -1.79875710      15
Co    -0.07473486   -1.80778873    1.79462312      16
Co    -0.11350881   -1.76313623   -1.87239856      17
Ni     1.68325725    1.71884687    0.00101077      18
