          18
Lattice="  24.8920   0.0000   0.0000   0.0000  24.8920   0.0000   0.0000   0.0000  24.8920 " ConfE="      -5932.0349" DelE="          0.0000"
Ni     0.02903033   -0.04114772   -3.53899458       1
Cr     3.47773416    0.08243860   -0.06609731       2
Co    -0.04158325    0.00147874    3.57693589       3
Cr    -3.57790646   -0.02597472   -0.02572828       4
Cr    -0.04043049    3.51983257   -0.02785422       5
Co    -0.01512358   -3.55568953    0.00854964       6
Co    -0.01787940    1.73823896   -1.77878642       7
Ni     0.03344650   -1.76632691   -1.75579766       8
Ni     1.73338010    1.74852160   -0.00140221       9
Co     1.76110353   -1.73566404    0.02708219      10
Co    -1.80338349   -0.03578869   -1.79324181      11
Cr     1.73531751    0.03141496    1.84857259      12
Co    -1.81694386    0.00531047    1.79619097      13
Cr    -1.79312873    1.68600420   -0.03930840      14
Cr    -1.77290545   -1.71613586    0.02318936      15
Cr    -0.06161840    1.74350899    1.80785655      16
Ni    -0.02610072   -1.77217750    1.80679749      17
Co     0.00000000    0.00000000    0.00000000      18
          18
Lattice="  24.8920   0.0000   0.0000   0.0000  24.8920   0.0000   0.0000   0.0000  24.8920 " ConfE="      -5931.1064" DelE="          0.9286"
Ni     0.04975620   -0.05008879   -3.50880122       1
Cr     3.44161785    0.05472508   -0.06887855       2
Co    -0.01129357    0.00921354    3.55391011       3
Cr    -3.58974460   -0.02888600   -0.03552643       4
Cr    -0.06746261    3.63791652   -0.00013445       5
Co    -0.04387021   -3.61838639    0.01216519       6
Co    -0.06866142    1.88058451   -1.78004164       7
Ni    -0.01675476   -1.91631302   -1.78854874       8
Ni     1.77342711    1.95871812    0.07704244       9
Co     1.76379680   -1.92446025    0.05821360      10
Co    -1.69664550   -0.04927164   -1.75215773      11
Cr     1.69077968    0.01956146    1.66871268      12
Co    -1.79013435    0.00468733    1.76857854      13
Cr    -1.70588961    1.57004223   -0.06039912      14
Cr    -1.71618316   -1.65581636    0.00733694      15
Cr    -0.04413114    1.71470260    1.74085001      16
Ni    -0.02279664   -1.74987071    1.75557870      17
Co     1.04685054    0.02556969   -0.98007047      18
          18
Lattice="  24.8920   0.0000   0.0000   0.0000  24.8920   0.0000   0.0000   0.0000  24.8920 " ConfE="      -5931.7348" DelE="          0.3001"
Ni    -0.00456676   -0.04374721   -3.57837676       1
Cr     3.53041647    0.08863709   -0.04022622       2
Co    -0.03684078    0.00360062    3.58596299       3
Cr    -3.62872791   -0.02738934   -0.02441694       4
Cr    -0.05710737    3.55398395   -0.01718761       5
Co    -0.02511381   -3.56005529    0.00806974       6
Co    -0.05271982    1.72709917   -1.74758115       7
Ni    -0.00607413   -1.75419222   -1.72780816       8
Ni     1.68626300    1.72904898    0.03172130       9
Co     1.73278110   -1.72238080    0.04022962      10
Co    -1.77975455   -0.03904574   -1.77255048      11
Cr     1.72070572    0.01404382    1.78967578      12
Co    -1.80645794    0.00862829    1.77908704      13
Cr    -1.73893745    1.55689111   -0.04445549      14
Cr    -1.76586823   -1.64304656    0.03127358      15
Cr    -0.06832773    1.70586219    1.78596109      16
Ni    -0.03443575   -1.73285280    1.77590956      17
Co     1.74906024    0.00778090   -1.73129752      18
