          18
Lattice="  24.8920   0.0000   0.0000   0.0000  24.8920   0.0000   0.0000   0.0000  24.8920 " ConfE="      -5946.2103" DelE="          0.0000"
Ni    -0.01679987   -3.60977690    0.00580124       1
Co     3.45866054   -0.02051737   -0.00701513       2
Co    -0.00544016    3.47136484    0.00487030       3
Cr    -3.52177865   -0.07622287   -0.01245588       4
Co    -0.03113605   -0.06397637    3.54121934       5
Co    -0.06649998   -0.06187015   -3.57213466       6
Ni     1.70491312   -0.03700581   -1.78351190       7
Ni    -0.03967336    1.72616324   -1.76874749       8
Cr     1.72799857    0.01479670    1.76258146       9
Cr     0.05872105    1.76734780    1.70943705      10
Ni    -0.04153343   -1.83211231   -1.77113687      11
Cr     1.78561684   -1.82550461   -0.06804756      12
Co    -1.79342666   -1.82509184    0.03683210      13
Cr    -0.01337596   -1.79330254    1.78826457      14
Co    -1.85123751    1.72219541   -0.00349246      15
Co    -1.78472961   -0.05019130    1.76185074      16
Cr    -1.84817547   -0.04673881   -1.73766641      17
Ni     0.00000000    0.00000000    0.00000000      18
          18
Lattice="  24.8920   0.0000   0.0000   0.0000  24.8920   0.0000   0.0000   0.0000  24.8920 " ConfE="      -5945.5606" DelE="          0.6497"
Ni    -0.01173503   -3.60383343    0.01265291       1
Co     3.47551307   -0.04240078   -0.01705440       2
Co    -0.01672832    3.45728052    0.01085057       3
Cr    -3.53610728   -0.06668817   -0.02352240       4
Co    -0.04121529   -0.08174946    3.61390743       5
Co    -0.08902909   -0.07303156   -3.62148519       6
Ni     1.71941929   -0.10703591   -1.91131359       7
Ni    -0.09197353    1.70556869   -1.86358497       8
Cr     1.81638796   -0.11800112    1.94910669       9
Cr    -0.05687655    1.70162618    1.92630783      10
Ni    -0.04073377   -1.79521809   -1.75222223      11
Cr     1.72138536   -1.72588015   -0.04699290      12
Co    -1.74510379   -1.77346696    0.03305440      13
Cr    -0.01486411   -1.67216209    1.72031875      14
Co    -1.78239001    1.66616814   -0.00005365      15
Co    -1.72365662   -0.04833047    1.74251250      16
Cr    -1.81071665   -0.04431309   -1.68356906      17
Ni     1.10731822    1.03569380    0.06362220      18
          18
Lattice="  24.8920   0.0000   0.0000   0.0000  24.8920   0.0000   0.0000   0.0000  24.8920 " ConfE="      -5946.0325" DelE="          0.1777"
Ni    -0.02539376   -3.62225515    0.00640978       1
Co     3.52568308   -0.05879262   -0.00556007       2
Co    -0.04165051    3.52722760   -0.01075835       3
Cr    -3.54452899   -0.07071473   -0.03039313       4
Co    -0.03981980   -0.07813535    3.59282993       5
Co    -0.07962837   -0.06686791   -3.59368592       6
Ni     1.67017243   -0.06917697   -1.76847393       7
Ni    -0.07035404    1.69237012   -1.76947926       8
Cr     1.69008490   -0.04041947    1.76132711       9
Cr    -0.01514915    1.65917220    1.73606099      10
Ni    -0.05347916   -1.80917162   -1.74830197      11
Cr     1.72961352   -1.77391444   -0.04434037      12
Co    -1.76610021   -1.79055957    0.02496332      13
Cr    -0.04484219   -1.71054851    1.71563977      14
Co    -1.79937867    1.67217300   -0.01043826      15
Co    -1.73758864   -0.05634192    1.72957577      16
Cr    -1.83272407   -0.05578676   -1.69378314      17
Ni     1.68493520    1.68589853   -0.01649171      18
