          18
Lattice="  24.8920   0.0000   0.0000   0.0000  24.8920   0.0000   0.0000   0.0000  24.8920 " ConfE="      -5925.5186" DelE="          0.0000"
Co    -0.01838900   -3.56116652   -0.01216317       1
Ni    -0.00611209   -0.03482902    3.49596428       2
Co    -0.04228479    3.55032684   -0.04021131       3
Cr    -0.05482805    0.04720831   -3.51478690       4
Ni    -3.59137778    0.00609672    0.02201976       5
Cr     3.52294845   -0.00149230   -0.09683855       6
Ni    -1.74512708   -1.75455556    0.07439162       7
Cr     1.77467331   -1.82278856   -0.07887402       8
Cr    -1.80310245    0.05530529    1.77645225       9
Ni     1.77551920   -0.06058530    1.69898644      10
Ni    -0.03108434   -1.77655685   -1.79850259      11
Ni    -0.00211369    1.78699337    1.73788325      12
Cr    -0.06294863    1.83903324   -1.80502339      13
Co    -1.80273679    0.02810790   -1.76145081      14
Co     1.74221344    0.02038681   -1.79501291      15
Cr    -1.82230067    1.76051465   -0.03563263      16
Cr     1.79710900    1.78081207   -0.07282823      17
Ni     0.00000000    0.00000000    0.00000000      18
          18
Lattice="  24.8920   0.0000   0.0000   0.0000  24.8920   0.0000   0.0000   0.0000  24.8920 " ConfE="      -5924.7584" DelE="          0.7602"
Co    -0.02081250   -3.54516406   -0.01284018       1
Ni     0.00593419   -0.05762920    3.47279028       2
Co    -0.04357449    3.55184377   -0.03151019       3
Cr    -0.04819837    0.01473608   -3.52918171       4
Ni    -3.66276161    0.04379427   -0.00080339       5
Cr     3.58274878    0.03984322   -0.09147714       6
Ni    -1.95467371   -1.76024171   -0.05255725       7
Cr     1.92384870   -1.80018896   -0.15099902       8
Cr    -1.91197422    0.07455335    1.77684837       9
Ni     1.93848932    0.01197489    1.73700765      10
Ni    -0.03334098   -1.72373129   -1.70703742      11
Ni     0.00821460    1.68386172    1.68099188      12
Cr    -0.05305491    1.78313226   -1.77064181      13
Co    -1.78751617    0.04855097   -1.72443405      14
Co     1.71980833    0.02768963   -1.73008163      15
Cr    -1.75525236    1.68787028   -0.06069836      16
Cr     1.72876460    1.69650999   -0.09020963      17
Ni     0.00680733   -1.06378954    0.97088528      18
          18
Lattice="  24.8920   0.0000   0.0000   0.0000  24.8920   0.0000   0.0000   0.0000  24.8920 " ConfE="      -5925.3794" DelE="          0.1391"
Co    -0.02123107   -3.61670103   -0.05099428       1
Ni     0.00173188   -0.01051631    3.53003676       2
Co    -0.04399910    3.57870622   -0.04357689       3
Cr    -0.05340095    0.03843534   -3.52870354       4
Ni    -3.61449783    0.02160670    0.01512442       5
Cr     3.55784201    0.01609191   -0.09342366       6
Ni    -1.77001215   -1.72325122    0.01635737       7
Cr     1.77510173   -1.79059210   -0.11319439       8
Cr    -1.78306353    0.06641828    1.72796664       9
Ni     1.77179130   -0.03070725    1.65947448      10
Ni    -0.03320355   -1.75067728   -1.75748656      11
Ni     0.00372373    1.73004531    1.67873848      12
Cr    -0.05701056    1.82113579   -1.78954726      13
Co    -1.76360759    0.06250931   -1.71759722      14
Co     1.69025401    0.03683898   -1.72566623      15
Cr    -1.76862932    1.72783286   -0.06425640      16
Cr     1.74372539    1.74867580   -0.10869320      17
Ni     0.00673279   -1.77135203    1.69256181      18
