          18
Lattice="  24.8920   0.0000   0.0000   0.0000  24.8920   0.0000   0.0000   0.0000  24.8920 " ConfE="      -5922.7605" DelE="          0.0000"
Co     0.00361666   -3.46306690    0.00270370       1
Co     3.60933271   -0.01316808    0.01087452       2
Ni    -0.00900713    3.53114369   -0.01139777       3
Co    -3.56444829    0.00748406   -0.01210334       4
Ni     0.01084332   -0.05063738   -3.57113097       5
Cr     0.00091379    0.01909808    3.56443834       6
Cr     0.01528794   -1.79164957   -1.66851836       7
Ni     0.04225532   -1.74807404    1.75949651       8
Ni     1.77570617   -0.06118183   -1.73060119       9
Ni     1.79506190   -0.02821389    1.77317571      10
Co    -1.80282359   -1.72390315    0.00194207      11
Ni     1.78203485    1.75979647    0.00884035      12
Cr    -1.82547332    1.75774670   -0.00432739      13
Cr    -1.76491723    0.00476599   -1.75349196      14
Co    -1.75148165    0.01880813    1.76868934      15
Co    -0.00968709    1.73876631   -1.77446868      16
Cr     0.00463072    1.76841642    1.77703072      17
Cr     0.00000000    0.00000000    0.00000000      18
          18
Lattice="  24.8920   0.0000   0.0000   0.0000  24.8920   0.0000   0.0000   0.0000  24.8920 " ConfE="      -5922.0967" DelE="          0.6638"
Co     0.00561271   -3.45805815    0.04827839       1
Co     3.53592159   -0.04983130    0.01080552       2
Ni     0.00025987    3.52463295   -0.00862595       3
Co    -3.56653698   -0.00446649   -0.00264706       4
Ni     0.00378478   -0.03223503   -3.63606656       5
Cr    -0.02943194    0.05181348    3.67630311       6
Cr    -0.02035472   -1.80535634   -1.82806603       7
Ni    -0.00296798   -1.76428907    1.90573670       8
Ni     1.81833700    0.02795585   -1.90747768       9
Ni     1.80419261    0.00753245    1.93328223      10
Co    -1.68517821   -1.67958536   -0.01274925      11
Ni     1.74001144    1.66503986    0.00494804      12
Cr    -1.77838206    1.71514543    0.01682242      13
Cr    -1.62944874   -0.00299149   -1.63422479      14
Co    -1.69165767    0.02281012    1.73452904      15
Co    -0.02250534    1.68472212   -1.74538929      16
Cr    -0.00369875    1.65246112    1.70252745      17
Cr     0.94856099   -0.92997276   -0.03191268      18
          18
Lattice="  24.8920   0.0000   0.0000   0.0000  24.8920   0.0000   0.0000   0.0000  24.8920 " ConfE="      -5923.0734" DelE="         -0.3129"
Co    -0.00811352   -3.53402490    0.02918160       1
Co     3.63178997    0.01410537    0.01106094       2
Ni    -0.01199540    3.54781765   -0.00843350       3
Co    -3.58923383    0.00646336   -0.00834709       4
Ni     0.00653272   -0.04496047   -3.60214212       5
Cr    -0.00269413    0.02861875    3.59558885       6
Cr     0.00615625   -1.74282214   -1.64771957       7
Ni     0.02503097   -1.73078888    1.76136220       8
Ni     1.74845797   -0.02401887   -1.74209664       9
Ni     1.76809844    0.01078999    1.79190850      10
Co    -1.70265619   -1.67479063   -0.03088366      11
Ni     1.73532108    1.72010847    0.01476269      12
Cr    -1.76947645    1.70668202    0.00938695      13
Cr    -1.70381062    0.00822019   -1.68602730      14
Co    -1.70694969    0.04945381    1.72751995      15
Co    -0.03885696    1.70026622   -1.73727212      16
Cr    -0.02372812    1.74400960    1.75321246      17
Cr     1.79260861   -1.72579511    0.03293104      18
