          18
Lattice="  24.8920   0.0000   0.0000   0.0000  24.8920   0.0000   0.0000   0.0000  24.8920 " ConfE="      -5943.0851" DelE="          0.0000"
Co    -0.00444488    3.55069874   -0.03631057       1
Co    -0.08698701    0.03185781    3.48919356       2
Co     0.02229750   -0.00114640   -3.56899728       3
Co    -0.01377738   -3.55058862   -0.02006763       4
Co     3.55297021   -0.00278444   -0.01500816       5
Cr    -3.52736021   -0.05739282   -0.06282559       6
Ni     1.72652445   -0.00782881    1.75558086       7
Ni    -1.75416909    1.76557328   -0.00178048       8
Ni    -1.75570428    0.00337763    1.74549201       9
Co     1.76090331    1.78124252   -0.01820350      10
Cr     0.03689671    1.79971694   -1.79642306      11
Cr    -0.04698012   -1.88112268    1.74926133      12
Cr     1.77956474   -0.00980325   -1.76214209      13
Cr     0.05129920   -1.83231717   -1.80246814      14
Co     1.76352510   -1.78521418   -0.01109499      15
Co    -1.73846516   -0.02726694   -1.81926535      16
Co    -1.78748590   -1.79131942   -0.04836677      17
Ni     0.00000000    0.00000000    0.00000000      18
          18
Lattice="  24.8920   0.0000   0.0000   0.0000  24.8920   0.0000   0.0000   0.0000  24.8920 " ConfE="      -5942.3027" DelE="          0.7824"
Co    -0.00558737    3.51799383   -0.04288481       1
Co    -0.08090849    0.01508544    3.44947504       2
Co     0.02723933   -0.00056348   -3.56697449       3
Co    -0.01204840   -3.55691484   -0.02093123       4
Co     3.63999743   -0.01893119   -0.03288354       5
Cr    -3.62026541   -0.08145130   -0.08827786       6
Ni     1.94309305   -0.07217953    1.77459323       7
Ni    -1.90298863    1.76699671   -0.05182294       8
Ni    -1.91450877   -0.05016791    1.74741460       9
Co     1.96209573    1.82035331   -0.05958555      10
Cr     0.06356603    1.61238615   -1.60926558      11
Cr    -0.02998261   -1.73956386    1.63409539      12
Cr     1.78554594   -0.00729095   -1.68204491      13
Cr     0.04991794   -1.70016310   -1.68413749      14
Co     1.74867592   -1.73902718   -0.01633473      15
Co    -1.70851962   -0.01802218   -1.76712938      16
Co    -1.76253715   -1.75161568   -0.03861705      17
Ni     0.03963866    1.10377481    1.11094297      18
          18
Lattice="  24.8920   0.0000   0.0000   0.0000  24.8920   0.0000   0.0000   0.0000  24.8920 " ConfE="      -5942.8586" DelE="          0.2265"
Co    -0.00933584    3.58623391   -0.05831758       1
Co    -0.07319418   -0.02957694    3.52320244       2
Co     0.02080898   -0.00719834   -3.59659451       3
Co    -0.01253079   -3.57826317   -0.02582411       4
Co     3.57813062   -0.00633994   -0.01844208       5
Cr    -3.56729733   -0.06653276   -0.06526254       6
Ni     1.71329424   -0.03276178    1.71174453       7
Ni    -1.76825242    1.74202532   -0.03049505       8
Ni    -1.74014529   -0.03105837    1.70367414       9
Co     1.73657758    1.74283922   -0.04670443      10
Cr     0.04674741    1.68095475   -1.70713174      11
Cr    -0.03781591   -1.82612320    1.66547994      12
Cr     1.75094360   -0.01819996   -1.72677933      13
Cr     0.04113663   -1.74334415   -1.71771634      14
Co     1.72384455   -1.75702983   -0.03342269      15
Co    -1.69905731   -0.03049816   -1.78551023      16
Co    -1.75335679   -1.77283041   -0.05359115      17
Ni    -0.02688208    1.74675790    1.74075858      18
