          18
Lattice="  24.8920   0.0000   0.0000   0.0000  24.8920   0.0000   0.0000   0.0000  24.8920 " ConfE="      -5926.8942" DelE="          0.0000"
Ni     3.62975328    0.02607786    0.08544920       1
Cr    -0.30012057    0.04139113   -3.20238824       2
Cr    -3.37779884    0.05838289   -0.05751198       3
Co     0.04222259    0.04768224    3.64291856       4
Cr     0.06930458   -3.51837371    0.08218503       5
Co     0.08549214    3.64462661    0.06021178       6
Ni    -1.71878949   -1.77684254    0.05534535       7
Ni    -1.71889387    1.84895634    0.09848389       8
Ni     0.01926589    1.85318125   -1.66169730       9
Ni     1.83139812   -1.72604951    0.05902352      10
Ni     1.83111729    0.04530552    1.82424002      11
Cr     0.03311460   -1.73530757   -1.70105127      12
Ni     0.06039171   -1.73783354    1.85080912      13
Ni     0.06667771    1.80692505    1.81973819      14
Co     1.82184291    0.04203934   -1.74576946      15
Cr     1.83594678    1.79216788   -0.00304769      16
Cr    -1.71778609    0.03271502    1.86464773      17
Co     0.00000000    0.00000000    0.00000000      18
          18
Lattice="  24.8920   0.0000   0.0000   0.0000  24.8920   0.0000   0.0000   0.0000  24.8920 " ConfE="      -5926.4957" DelE="          0.3985"
Ni     3.62252320    0.01954845    0.07948559       1
Cr    -0.26609366    0.03000653   -3.25924448       2
Cr    -3.39050971    0.05253525    0.02402318       3
Co     0.03359863    0.04657368    3.62615743       4
Cr     0.11153237   -3.61126252    0.11731980       5
Co     0.09753404    3.71145665    0.06032286       6
Ni    -1.73675582   -2.00296469    0.19647075       7
Ni    -1.74275597    1.99157575    0.15171502       8
Ni     0.03055546    1.93846066   -1.66221932       9
Ni     1.76238396   -1.71184721    0.04197707      10
Ni     1.79209127    0.05000191    1.77409679      11
Cr    -0.00436216   -1.84478582   -1.69513282      12
Ni     0.05557566   -1.74304212    1.83925194      13
Ni     0.06187752    1.80570992    1.77329747      14
Co     1.69928783    0.04587080   -1.68016688      15
Cr     1.80324200    1.77276165   -0.02927124      16
Cr    -1.67674203    0.03614859    1.77301748      17
Co    -1.08403325   -0.05083967   -0.91587697      18
          18
Lattice="  24.8920   0.0000   0.0000   0.0000  24.8920   0.0000   0.0000   0.0000  24.8920 " ConfE="      -5927.1215" DelE="         -0.2272"
Ni     3.65809304    0.01900768    0.09576658       1
Cr     0.01270785    0.00643288   -3.40722510       2
Cr    -3.49878700    0.04772646    0.07469742       3
Co     0.04583090    0.04618788    3.65547055       4
Cr     0.06934912   -3.54307409    0.09645018       5
Co     0.08194255    3.64473472    0.05245008       6
Ni    -1.69114199   -1.75908649    0.11499789       7
Ni    -1.71364132    1.82339823    0.11458934       8
Ni     0.04131442    1.80600560   -1.64430724       9
Ni     1.80993158   -1.71123387    0.07034083      10
Ni     1.83015999    0.05495374    1.80639492      11
Cr     0.05174842   -1.72845406   -1.67218300      12
Ni     0.06836677   -1.71524239    1.84741709      13
Ni     0.07309472    1.78144879    1.79451445      14
Co     1.79649176    0.03700926   -1.67229231      15
Cr     1.85073193    1.78357853   -0.00452348      16
Cr    -1.70753949    0.03709717    1.85321950      17
Co    -1.68632721   -0.00198334   -1.62940181      18
