          18
Lattice="  24.8920   0.0000   0.0000   0.0000  24.8920   0.0000   0.0000   0.0000  24.8920 " ConfE="      -5937.8487" DelE="          0.0000"
Co     0.01305910   -3.53649747   -0.13757847       1
Ni     3.51219274    0.01080745   -0.12927810       2
Cr     0.01561368   -0.02749301    3.29416149       3
Cr    -3.53597960    0.01355174   -0.15142317       4
Co    -0.04003338    0.04006410   -3.74682108       5
Co     0.00533683    3.58656888   -0.09253510       6
Ni     1.74023096   -1.75598694   -0.09424723       7
Ni    -1.72135513   -1.74536998   -0.08941374       8
Co     1.65118379   -0.01969192    1.68035294       9
Ni    -0.01290255   -1.72752525   -1.91504912      10
Ni     1.75387083   -0.00669312   -1.89287498      11
Cr    -1.77055870    0.01896437    1.65410610      12
Ni     1.76656464    1.77061820   -0.10387582      13
Ni     0.00024672    1.74775029   -1.89792881      14
Ni    -1.76451016    1.79428933   -0.14070991      15
Co    -0.01695256    1.83208304    1.66621150      16
Co    -1.79499468    0.01763593   -1.89031405      17
Cr     0.00000000    0.00000000    0.00000000      18
          18
Lattice="  24.8920   0.0000   0.0000   0.0000  24.8920   0.0000   0.0000   0.0000  24.8920 " ConfE="      -5937.1715" DelE="          0.6771"
Co     0.01976756   -3.46939530   -0.10755461       1
Ni     3.56654719    0.02489000   -0.14466149       2
Cr     0.02032273    0.01464334    3.39304202       3
Cr    -3.61879081    0.02791922   -0.19617631       4
Co    -0.04605067    0.03056576   -3.74801115       5
Co     0.00225812    3.57033270   -0.07748300       6
Ni     1.86097801   -1.76643358   -0.13947210       7
Ni    -1.86154100   -1.75728108   -0.16378453       8
Co     1.83717082    0.03840467    1.70166314       9
Ni    -0.01798228   -1.69513005   -1.84692748      10
Ni     1.75400240   -0.01128457   -1.87333183      11
Cr    -1.89761649    0.05865947    1.66271348      12
Ni     1.75380465    1.73346180   -0.09992225      13
Ni    -0.00647235    1.71212245   -1.88472433      14
Ni    -1.73482821    1.72366609   -0.13578375      15
Co    -0.00795264    1.70111684    1.64939342      16
Co    -1.81765531    0.01318239   -1.89771044      17
Cr     0.00428308   -0.84003036    0.85697764      18
          18
Lattice="  24.8920   0.0000   0.0000   0.0000  24.8920   0.0000   0.0000   0.0000  24.8920 " ConfE="      -5938.0554" DelE="         -0.2067"
Co     0.01363903   -3.55090044   -0.14236504       1
Ni     3.53430371    0.02020938   -0.15064865       2
Cr     0.01561822    0.04599565    3.45955773       3
Cr    -3.56116506    0.01775863   -0.18053466       4
Co    -0.04124970    0.04566903   -3.78698518       5
Co    -0.00180503    3.59947438   -0.09512106       6
Ni     1.73894274   -1.72687051   -0.12129937       7
Ni    -1.70656093   -1.69183306   -0.12759389       8
Co     1.64068460   -0.01253147    1.66539462       9
Ni    -0.01235808   -1.70455152   -1.90668155      10
Ni     1.76164625   -0.00208513   -1.92039762      11
Cr    -1.72294004    0.07334585    1.62019701      12
Ni     1.74060832    1.74845867   -0.12771159      13
Ni    -0.00140521    1.73493762   -1.93203164      14
Ni    -1.72956422    1.75070328   -0.18132921      15
Co    -0.02855412    1.73026491    1.63422845      16
Co    -1.81604494    0.02400134   -1.93934519      17
Cr    -0.00077818   -1.67531039    1.65975570      18
