          18
Lattice="  24.8920   0.0000   0.0000   0.0000  24.8920   0.0000   0.0000   0.0000  24.8920 " ConfE="      -5938.4417" DelE="          0.0000"
Co     0.01566118   -0.08559757   -3.52461520       1
Co     0.00993334    3.49519176    0.10077709       2
Ni     3.53462454   -0.05105530    0.00777564       3
Cr    -3.55313675   -0.05848503    0.08143464       4
Cr    -0.03502690   -3.62187802    0.08398601       5
Cr    -0.00566253   -0.03471336    3.54080909       6
Ni    -1.72660001    0.00308397   -1.73096485       7
Cr     1.69693206   -0.06691087   -1.76333530       8
Co     1.74779456    1.74115061    0.05075919       9
Co    -1.78147218    1.77023850    0.05819712      10
Ni     1.77139855   -1.83355337    0.03762065      11
Cr    -0.03014249   -1.87917112   -1.72288936      12
Cr     0.00998411    1.78804109    1.77595861      13
Co     1.77202838   -0.01773843    1.80857298      14
Co    -1.73480308   -1.81715806    0.06689638      15
Co    -1.76073756   -0.04001017    1.79308023      16
Cr     0.03578846   -1.77611594    1.84103643      17
Ni     0.00000000    0.00000000    0.00000000      18
          18
Lattice="  24.8920   0.0000   0.0000   0.0000  24.8920   0.0000   0.0000   0.0000  24.8920 " ConfE="      -5937.1970" DelE="          1.2447"
Co    -0.00217507   -0.07053161   -3.51515972       1
Co     0.02043643    3.46277490    0.09966745       2
Ni     3.51283194   -0.10622616    0.03679278       3
Cr    -3.60978304   -0.09108080    0.08790737       4
Cr    -0.01143468   -3.57359575    0.07109432       5
Cr    -0.02319138    0.01770521    3.59463539       6
Ni    -1.83588601   -0.06911522   -1.73827185       7
Cr     1.97853821   -0.09597979   -1.90611387       8
Co     1.96329316    1.79046496    0.15864541       9
Co    -1.87343651    1.75577290    0.06961551      10
Ni     1.06231815   -1.18144843   -0.07035256      11
Cr    -0.13476794   -1.90873243   -1.97308295      12
Cr     0.00199083    1.62483992    1.64579506      13
Co     1.78067232    0.02013485    1.90459255      14
Co    -1.65756495   -1.78252674    0.04658352      15
Co    -1.70636227   -0.04445414    1.72880035      16
Cr     0.00294950   -1.72325847    1.97813457      17
Ni     0.12534892    1.12101954   -1.14001085      18
          18
Lattice="  24.8920   0.0000   0.0000   0.0000  24.8920   0.0000   0.0000   0.0000  24.8920 " ConfE="      -5937.5661" DelE="          0.8756"
Co     0.00119455   -0.07288855   -3.57765287       1
Co     0.02519371    3.53249974    0.11205862       2
Ni     3.46110449   -0.09984642    0.01238006       3
Cr    -3.57569527   -0.08309843    0.08514747       4
Cr     0.01206196   -3.53468131    0.06913120       5
Cr    -0.02617738   -0.00407015    3.61873269       6
Ni    -1.73650538   -0.03702965   -1.71356279       7
Cr     1.81896240   -0.05848045   -1.92454190       8
Co     1.71737604    1.67243550    0.07201360       9
Co    -1.75022084    1.71946212    0.07870704      10
Ni     0.91277084   -0.99364825   -0.01605366      11
Cr    -0.08897115   -1.90217294   -1.95745730      12
Cr     0.01848868    1.59380554    1.71132554      13
Co     1.81062450   -0.00199593    1.97243114      14
Co    -1.66196319   -1.79029879    0.05971037      15
Co    -1.72510213   -0.06087375    1.76854566      16
Cr     0.00873617   -1.74335690    2.00519055      17
Ni     0.00683145    1.69769974   -1.69517381      18
