          18
Lattice="  24.8920   0.0000   0.0000   0.0000  24.8920   0.0000   0.0000   0.0000  24.8920 " ConfE="      -5944.3759" DelE="          0.0000"
Cr    -3.37408999   -0.00492923   -0.02253334       1
Cr    -0.05062971   -3.43302568   -0.10001704       2
Cr     3.57830880    0.06981452    0.01773826       3
Ni     0.06984730    3.61768107   -0.03262409       4
Ni     0.04978429    0.02314598   -3.59578450       5
Co     0.06726874    0.04454068    3.55481131       6
Cr    -1.59296713    0.00998522   -1.74605438       7
Cr    -1.66760421    0.03204693    1.73798166       8
Co     0.04144521   -1.73726098   -1.71188724       9
Ni     0.02561167   -1.73621349    1.75418885      10
Ni    -1.69829051    1.85973542   -0.02356052      11
Cr     1.85956417   -1.70209071    0.01537413      12
Co     1.80729698    1.77223408   -0.00825758      13
Co     0.03692854    1.81617383   -1.81088965      14
Ni     0.05054632    1.83632763    1.78144308      15
Cr     1.71220281    0.08125924   -1.75059874      16
Co     1.81495226    0.00801890    1.76376892      17
Co     0.00000000    0.00000000    0.00000000      18
          18
Lattice="  24.8920   0.0000   0.0000   0.0000  24.8920   0.0000   0.0000   0.0000  24.8920 " ConfE="      -5944.0088" DelE="          0.3671"
Cr    -3.30777901   -0.04921455   -0.01322738       1
Cr    -0.09289558   -3.37924700   -0.08352514       2
Cr     3.58079786    0.04651612    0.01160837       3
Ni     0.06409463    3.61914434   -0.02911795       4
Ni     0.06702176    0.03264303   -3.66934180       5
Co     0.08551641    0.04876973    3.61261847       6
Cr    -1.61448654    0.11723561   -1.94326354       7
Cr    -1.65143020    0.07321592    1.90096984       8
Co     0.09235675   -1.78741230   -1.88612496       9
Ni     0.07756485   -1.76250024    1.89576691      10
Ni    -1.63709641    1.77704209   -0.01981557      11
Cr     1.75624336   -1.66672990    0.02260641      12
Co     1.76533676    1.72841270   -0.01155405      13
Co     0.03819871    1.83552428   -1.82967457      14
Ni     0.05936333    1.80859657    1.78408018      15
Cr     1.52698295    0.07468171   -1.67067798      16
Co     1.79210349    0.00094357    1.74935873      17
Co    -0.71610386   -0.66605788   -0.04432829      18
          18
Lattice="  24.8920   0.0000   0.0000   0.0000  24.8920   0.0000   0.0000   0.0000  24.8920 " ConfE="      -5944.6527" DelE="         -0.2768"
Cr    -3.46044122    0.05800653   -0.03137930       1
Cr     0.01100635   -3.48569158   -0.06402808       2
Cr     3.62015547    0.06922942    0.01724725       3
Ni     0.06917272    3.62707228   -0.03461595       4
Ni     0.05141202    0.03553586   -3.62187115       5
Co     0.07716566    0.05042657    3.56901526       6
Cr    -1.55387033    0.02378865   -1.72135533       7
Cr    -1.64180021    0.04950832    1.71067836       8
Co     0.08790250   -1.67429410   -1.69512972       9
Ni     0.05199135   -1.70689574    1.75659332      10
Ni    -1.65706147    1.80712406   -0.02813922      11
Cr     1.82843514   -1.64996673    0.01905194      12
Co     1.78632548    1.73896056   -0.01756294      13
Co     0.03576644    1.80218587   -1.81018387      14
Ni     0.05556220    1.81035873    1.76633860      15
Cr     1.64048713    0.10689825   -1.69238695      16
Co     1.80449342    0.00947309    1.72847107      17
Co    -1.70369618   -1.65827767    0.00445929      18
