          18
Lattice="  24.8920   0.0000   0.0000   0.0000  24.8920   0.0000   0.0000   0.0000  24.8920 " ConfE="      -5940.6897" DelE="          0.0000"
Ni     3.54527912    0.01492247   -0.00120076       1
Co    -0.00450813    0.02049631   -3.56115248       2
Cr    -0.03092874   -3.55290641    0.03998144       3
Cr    -0.07879110    3.58560121    0.03140651       4
Co     0.00337384    0.03896004    3.60523068       5
Co    -3.58886555    0.00175135   -0.00311588       6
Ni     1.75119212   -0.01957769   -1.78110818       7
Ni    -1.76809505   -0.01123715   -1.77765048       8
Ni    -1.75703362   -1.75821963   -0.02721196       9
Co     1.71255078   -1.76673861   -0.00178530      10
Ni    -0.00853595    1.79234638    1.80929786      11
Cr     1.70085533    1.74038275   -0.02292809      12
Co    -0.00812304    1.83199376   -1.75603261      13
Cr     1.70870894   -0.00417187    1.74671631      14
Co    -0.03708566   -1.76389052    1.82793179      15
Co    -1.80399147    1.77571019    0.01941792      16
Cr    -1.77222929    0.01270096    1.76968732      17
Co     0.00000000    0.00000000    0.00000000      18
          18
Lattice="  24.8920   0.0000   0.0000   0.0000  24.8920   0.0000   0.0000   0.0000  24.8920 " ConfE="      -5939.7380" DelE="          0.9517"
Ni     3.64592460    0.02982522    0.01902329       1
Co    -0.00722148   -0.03639562   -3.46659857       2
Cr    -0.04416645   -3.46793301   -0.03306022       3
Cr    -0.07851453    3.58533514   -0.01208808       4
Co     0.00477722    0.01817983    3.56779371       5
Co    -3.69092250    0.01863031    0.01249224       6
Ni     1.94792757   -0.00242172   -1.81530956       7
Ni    -1.93594131    0.01620651   -1.77459438       8
Ni    -1.96161846   -1.78455020    0.01734345       9
Co     1.94724789   -1.78856615    0.06671721      10
Ni    -0.00685177    1.73347955    1.73785199      11
Cr     1.67541375    1.62306546   -0.05081689      12
Co    -0.00563360    1.67906338   -1.67826588      13
Cr     1.68773220   -0.03680908    1.67146991      14
Co    -0.04533419   -1.71952767    1.69204799      15
Co    -1.81834273    1.72210527    0.02310828      16
Cr    -1.77039589    0.00047128    1.69676979      17
Co     0.04252552   -0.95928723   -0.87762931      18
          18
Lattice="  24.8920   0.0000   0.0000   0.0000  24.8920   0.0000   0.0000   0.0000  24.8920 " ConfE="      -5940.6426" DelE="          0.0471"
Ni     3.56020416    0.01994729    0.00696319       1
Co    -0.00751388    0.03111540   -3.57674936       2
Cr    -0.03732135   -3.58080749    0.03426117       3
Cr    -0.07857421    3.62261648    0.02951895       4
Co     0.00549621    0.04366578    3.61688904       5
Co    -3.60241595    0.00463363    0.00072443       6
Ni     1.73438660   -0.00706622   -1.75181537       7
Ni    -1.75470841    0.00920300   -1.74773253       8
Ni    -1.75100310   -1.72636430    0.00067851       9
Co     1.69333410   -1.71990922    0.03048787      10
Ni    -0.00510921    1.78345589    1.79071197      11
Cr     1.65664734    1.69707041   -0.01652782      12
Co     0.00083173    1.80133455   -1.71534745      13
Cr     1.64315302   -0.01962798    1.69926385      14
Co    -0.03872116   -1.73215953    1.79185052      15
Co    -1.77374581    1.74714098    0.03480828      16
Cr    -1.73073851    0.02501749    1.74807365      17
Co    -0.01840863   -1.81507887   -1.78442734      18
