          18
Lattice="  24.8920   0.0000   0.0000   0.0000  24.8920   0.0000   0.0000   0.0000  24.8920 " ConfE="      -5945.3083" DelE="          0.0000"
Ni    -0.00223816    0.00307703   -3.56513923       1
Ni    -3.52141724    0.03234498   -0.05432614       2
Ni     0.00045779    0.00082218    3.53377293       3
Co    -0.02406577    3.52781059   -0.07739386       4
Cr     3.56055391    0.02400021   -0.09436695       5
Cr    -0.02848189   -3.49793293   -0.06746767       6
Ni     1.74823342    0.00170833   -1.80135503       7
Ni     1.70561407    1.78410299   -0.07395031       8
Ni    -1.72659310    0.00671107   -1.81996483       9
Ni     1.78975913   -1.78071020   -0.02646299      10
Cr    -1.60355304    1.77708126   -0.13044934      11
Co    -0.00467319   -1.85061315   -1.75231168      12
Cr     1.77870993    0.01803551    1.75303306      13
Co    -1.76203080   -1.78054227    0.00450348      14
Cr    -0.05361505   -1.70863210    1.66790273      15
Co     0.01851492    1.76812782    1.76932661      16
Co    -1.78401905    0.03375314    1.74391555      17
Co     0.00000000    0.00000000    0.00000000      18
          18
Lattice="  24.8920   0.0000   0.0000   0.0000  24.8920   0.0000   0.0000   0.0000  24.8920 " ConfE="      -5944.2956" DelE="          1.0127"
Ni    -0.00512110    0.01474906   -3.53303859       1
Ni    -3.57852135   -0.00044939   -0.04303802       2
Ni     0.00035720    0.00995483    3.53916857       3
Co     0.01123651    3.49528105   -0.07889666       4
Cr     3.70224300   -0.00230104   -0.09757957       5
Cr    -0.02071520   -3.50112191   -0.07569481       6
Ni     1.88124767   -0.01588637   -1.80726405       7
Ni     1.94315415    1.79687242    0.01197041       8
Ni    -1.89069149   -0.06817127   -1.87087165       9
Ni     1.77071056   -1.71144304   -0.01824625      10
Cr    -1.86476936    1.79300334   -0.01938492      11
Co    -0.01028231   -1.75538365   -1.72572802      12
Cr     1.74123952    0.04190531    1.72751889      13
Co    -1.73770925   -1.74197916   -0.00189211      14
Cr    -0.06418160   -1.63782857    1.59974245      15
Co     0.03964863    1.70545240    1.66620362      16
Co    -1.76061824    0.02313098    1.70967617      17
Co    -0.05762866    1.02869783   -0.94141918      18
          18
Lattice="  24.8920   0.0000   0.0000   0.0000  24.8920   0.0000   0.0000   0.0000  24.8920 " ConfE="      -5945.2238" DelE="          0.0844"
Ni    -0.00400423   -0.02451501   -3.59608957       1
Ni    -3.53849157    0.01613563   -0.04904443       2
Ni    -0.00267029    0.00260045    3.54792160       3
Co    -0.01371106    3.57073139   -0.05729652       4
Cr     3.60928069    0.01330961   -0.09225761       5
Cr    -0.02239196   -3.52766760   -0.06964188       6
Ni     1.73934904   -0.01972812   -1.77853907       7
Ni     1.70587328    1.73324032   -0.04069527       8
Ni    -1.73419426   -0.02784942   -1.80087301       9
Ni     1.75214933   -1.74199508   -0.00607385      10
Cr    -1.62348014    1.74041230   -0.08630957      11
Co    -0.00262676   -1.83344063   -1.73856159      12
Cr     1.75221279    0.00832146    1.76242948      13
Co    -1.70909628   -1.76198311    0.00653181      14
Cr    -0.06445164   -1.67750245    1.63332144      15
Co     0.00945897    1.73210444    1.71715021      16
Co    -1.72816133    0.01902077    1.69693765      17
Co    -0.03503122    1.78149780   -1.81651723      18
