          18
Lattice="  24.8920   0.0000   0.0000   0.0000  24.8920   0.0000   0.0000   0.0000  24.8920 " ConfE="      -5949.8161" DelE="          0.0000"
Ni    -0.05497798   -3.46481843   -0.01807268       1
Ni    -0.03640256    0.04145147   -3.49326231       2
Ni     3.51111028    0.01989639    0.05918062       3
Ni    -0.01833803    3.62597817    0.03724820       4
Ni    -3.58234207    0.03294194    0.02468172       5
Cr    -0.07582913    0.03472133    3.60275020       6
Ni    -1.82148767   -1.74036222    0.02040119       7
Ni    -1.76740676    0.00322784   -1.75082784       8
Ni    -0.07156473   -1.74525914    1.82455641       9
Ni     1.71849711    0.00143176    1.81243010      10
Cr     1.66199863   -1.72682727   -0.07865261      11
Cr     1.67101559    0.09965886   -1.69852633      12
Cr    -0.03843078    1.80440367    1.79491002      13
Cr    -1.81627807    0.07238662    1.78553643      14
Co    -0.02154356    1.85551463   -1.72596281      15
Cr     1.71930790    1.80822173    0.05647402      16
Co    -1.78845629    1.81754482    0.04720883      17
Co     0.00000000    0.00000000    0.00000000      18
          18
Lattice="  24.8920   0.0000   0.0000   0.0000  24.8920   0.0000   0.0000   0.0000  24.8920 " ConfE="      -5949.0499" DelE="          0.7662"
Ni    -0.04240557   -3.46019308   -0.01151103       1
Ni    -0.03936703    0.04491732   -3.47632120       2
Ni     3.52121129    0.04482254    0.05756507       3
Ni    -0.02714473    3.64393746    0.02549517       4
Ni    -3.62560620    0.04067798    0.04003049       5
Cr    -0.08240225    0.02729916    3.61762141       6
Ni    -1.88935900   -1.74621141    0.05228913       7
Ni    -1.86019283    0.04796962   -1.74603223       8
Ni    -0.06541661   -1.72697926    1.77744471       9
Ni     1.67616068    0.00805397    1.76549127      10
Cr     1.87962036   -1.82427080    0.10084274      11
Cr     1.82289765    0.23933878   -1.79490203      12
Cr    -0.04235131    1.77658671    1.75189191      13
Cr    -1.76431706    0.06303424    1.73401679      14
Co     0.00164915    1.75446977   -1.65110384      15
Cr     1.67689760    1.78321769    0.04298737      16
Co    -1.76916660    1.78398711    0.05970984      17
Co     0.15184204   -0.95816150   -0.96380203      18
          18
Lattice="  24.8920   0.0000   0.0000   0.0000  24.8920   0.0000   0.0000   0.0000  24.8920 " ConfE="      -5949.5837" DelE="          0.2324"
Ni    -0.06561235   -3.51746847    0.02445522       1
Ni    -0.02855528    0.06001330   -3.53186548       2
Ni     3.52095793    0.02825825    0.05735514       3
Ni    -0.02204703    3.64375537    0.03620049       4
Ni    -3.60249202    0.03664064    0.03590344       5
Cr    -0.08472713    0.03740964    3.63102359       6
Ni    -1.81893044   -1.71893896    0.03805945       7
Ni    -1.76048230    0.03325709   -1.71344282       8
Ni    -0.08300533   -1.71841147    1.78883820       9
Ni     1.66912300    0.01294754    1.77045532      10
Cr     1.68104577   -1.70376007   -0.01887153      11
Cr     1.65713831    0.11471821   -1.67353451      12
Cr    -0.05516414    1.78597830    1.77899120      13
Cr    -1.79893539    0.08123245    1.78072078      14
Co     0.00462601    1.79285168   -1.66795368      15
Cr     1.67676969    1.78027385    0.05660427      16
Co    -1.75454557    1.78561527    0.07854405      17
Co     0.05017511   -1.67703670   -1.66520744      18
