          18
Lattice="  24.8920   0.0000   0.0000   0.0000  24.8920   0.0000   0.0000   0.0000  24.8920 " ConfE="      -5949.3541" DelE="          0.0000"
Co    -3.49894577    0.05828564   -0.00454186       1
Co     0.04131521   -3.45917404   -0.00419374       2
Ni     3.55163639    0.02020033    0.02876293       3
Ni     0.04943102    3.62025763    0.02260302       4
Cr     0.05357031    0.06536668    3.56766826       5
Co     0.05220792    0.01948089   -3.59287030       6
Co    -1.72139089    0.01715388    1.73036238       7
Ni    -1.73057215    0.06207927   -1.75240518       8
Co     0.03605860   -1.74071094    1.77763894       9
Co     0.01171387   -1.73365055   -1.80069740      10
Cr    -1.79308234    1.88302295    0.06021051      11
Cr     1.73486629   -1.80120524    0.02128329      12
Ni     1.78433224    1.81327682    0.03107315      13
Ni     0.01647010    1.81957311    1.76187150      14
Ni     0.03239362    1.82758494   -1.77643593      15
Cr     1.73837138   -0.00881019    1.84043296      16
Ni     1.78922861    0.03289375   -1.75707757      17
Ni     0.00000000    0.00000000    0.00000000      18
          18
Lattice="  24.8920   0.0000   0.0000   0.0000  24.8920   0.0000   0.0000   0.0000  24.8920 " ConfE="      -5948.9340" DelE="          0.4200"
Co    -3.46541967    0.06627566   -0.00780599       1
Co     0.03240503   -3.40668285   -0.02537367       2
Ni     3.54956797    0.01896671    0.02539494       3
Ni     0.04236634    3.61962386    0.01933250       4
Cr     0.08108852    0.07029741    3.61696305       5
Co     0.04896727    0.04464774   -3.64651075       6
Co    -1.73234994    0.05775202    1.85762317       7
Ni    -1.74086988    0.12303687   -1.89356394       8
Co     0.06162212   -1.80226046    1.96434018       9
Co     0.08220009   -1.79310269   -2.04083683      10
Cr    -1.72952056    1.80247340    0.03880767      11
Cr     1.68999062   -1.76427017    0.00629730      12
Ni     1.74096282    1.78030639    0.02425561      13
Ni     0.00654602    1.80672258    1.75896659      14
Ni     0.03052057    1.82975553   -1.79653105      15
Cr     1.64000270   -0.05315461    1.75757272      16
Ni     1.74994026    0.02259491   -1.74163916      17
Ni    -0.63606363   -0.76948772   -0.03517733      18
          18
Lattice="  24.8920   0.0000   0.0000   0.0000  24.8920   0.0000   0.0000   0.0000  24.8920 " ConfE="      -5949.4237" DelE="         -0.0697"
Co    -3.53894164    0.06493861   -0.00372629       1
Co     0.08343934   -3.52429728   -0.00060895       2
Ni     3.57310984    0.02790628    0.02792159       3
Ni     0.04689741    3.62970558    0.02518418       4
Cr     0.07976333    0.08751963    3.59575647       5
Co     0.05818248    0.02544463   -3.60949747       6
Co    -1.66807281    0.07191604    1.70416838       7
Ni    -1.70102142    0.08641277   -1.74836052       8
Co     0.08867583   -1.69210535    1.75107658       9
Co     0.05863558   -1.71485869   -1.79995140      10
Cr    -1.78070323    1.83197553    0.06543712      11
Cr     1.68129791   -1.71382738    0.01499087      12
Ni     1.76015621    1.78788369    0.03179697      13
Ni     0.02997318    1.80669112    1.74477926      14
Ni     0.02370143    1.81566110   -1.74828456      15
Cr     1.71301275   -0.00860350    1.80303867      16
Ni     1.76905588    0.04351006   -1.72515636      17
Ni    -1.66123281   -1.68887133   -0.01483284      18
