          18
Lattice="  24.8920   0.0000   0.0000   0.0000  24.8920   0.0000   0.0000   0.0000  24.8920 " ConfE="      -5948.7437" DelE="          0.0000"
Co     0.02044437   -0.04284353    3.50617836       1
Cr     3.59639724    0.02530067   -0.04391482       2
Co    -3.55657349    0.04607441    0.01305345       3
Cr    -0.02886517    0.06614337   -3.58810505       4
Co    -0.00370102   -3.48623417    0.09896350       5
Cr     0.02249946    3.55629290    0.00997422       6
Ni     1.75831423   -1.74585138    0.02593884       7
Ni    -0.01084947    1.76785382    1.78764848       8
Ni     1.77838000    1.74865220    0.04233809       9
Cr     1.68816181   -0.14493698    1.88139089      10
Ni    -1.76086834   -0.03960137    1.77474084      11
Ni     1.74745006    0.04137822   -1.80777934      12
Ni    -1.76642124   -1.75529127    0.01589848      13
Ni    -0.00303912   -1.72859437   -1.81370428      14
Cr    -1.78612900    0.04929035   -1.76698808      15
Co    -1.77107975    1.80378503    0.01727966      16
Cr    -0.02771583    1.84494316   -1.76258414      17
Ni     0.00000000    0.00000000    0.00000000      18
          18
Lattice="  24.8920   0.0000   0.0000   0.0000  24.8920   0.0000   0.0000   0.0000  24.8920 " ConfE="      -5948.0787" DelE="          0.6650"
Co    -0.00985648   -0.04782803    3.50137717       1
Cr     3.65299109    0.03760505   -0.06658895       2
Co    -3.60828053    0.05661376   -0.00257982       3
Cr    -0.03504270    0.05523540   -3.60033175       4
Co    -0.00386801   -3.44795610    0.09025405       5
Cr     0.03533038    3.55618392    0.01102839       6
Ni     1.92269330   -1.78910472   -0.04571939       7
Ni    -0.01405683    1.68426935    1.75336475       8
Ni     1.77011649    1.69606393    0.04745053       9
Cr     1.87972603   -0.10208404    1.91778945      10
Ni    -1.92986900    0.01444030    1.80345216      11
Ni     1.74809557    0.03166661   -1.79531244      12
Ni    -1.91116726   -1.77211028   -0.01044115      13
Ni    -0.00883263   -1.68734383   -1.73939648      14
Cr    -1.74790444    0.05653902   -1.70149345      15
Co    -1.74447056    1.75147335   -0.00107200      16
Cr    -0.03860371    1.76666508   -1.70205231      17
Ni     0.03201086   -0.71615394    0.74515076      18
          18
Lattice="  24.8920   0.0000   0.0000   0.0000  24.8920   0.0000   0.0000   0.0000  24.8920 " ConfE="      -5948.9533" DelE="         -0.2096"
Co     0.00105280   -0.00246323    3.56973864       1
Cr     3.62773615    0.04075163   -0.06227805       2
Co    -3.57972444    0.05337469    0.00679899       3
Cr    -0.04179433    0.06519635   -3.61542161       4
Co    -0.00662583   -3.53792779    0.03864046       5
Cr     0.03052255    3.56718996   -0.00103600       6
Ni     1.75483718   -1.70880439    0.00034557       7
Ni    -0.00744477    1.71421436    1.75624707       8
Ni     1.75163451    1.72126986    0.03121078       9
Cr     1.75333930   -0.07323247    1.84717272      10
Ni    -1.77599486   -0.00626773    1.75613779      11
Ni     1.71081265    0.05080889   -1.78427335      12
Ni    -1.76406188   -1.71845039   -0.01121943      13
Ni    -0.01357104   -1.68743930   -1.77331137      14
Cr    -1.74581158    0.07418258   -1.74364892      15
Co    -1.71999167    1.75421178   -0.02523059      16
Cr    -0.04367868    1.81324309   -1.74391609      17
Ni     0.00407509   -1.74334269    1.75443245      18
