          18
Lattice="  24.8920   0.0000   0.0000   0.0000  24.8920   0.0000   0.0000   0.0000  24.8920 " ConfE="      -5938.2725" DelE="          0.0000"
Ni    -0.00870868    0.04372210   -3.52922758       1
Ni    -0.00328755    3.48461749    0.00745029       2
Ni     0.00958651   -0.01933712    3.60218544       3
Ni     3.53597464   -0.00513297    0.02842403       4
Ni    -3.53326289   -0.01295823   -0.00426884       5
Cr     0.04630209   -3.53722197    0.03800808       6
Ni     1.71985306    1.74533419   -0.01219650       7
Ni    -1.76357325    0.03480939   -1.79456954       8
Ni    -1.74923297    1.74096939   -0.00195887       9
Ni     0.00774186   -1.80087051   -1.77217749      10
Ni     0.00714256   -1.76533094    1.80950181      11
Co     1.77138163   -0.02137564   -1.78005431      12
Ni     1.77537616    0.00541308    1.80951920      13
Cr     1.78178145   -1.75620717    0.00274851      14
Co    -1.76196404   -1.80578394   -0.01209181      15
Cr    -0.05775166    1.75436219    1.84896891      16
Co    -1.78664621    0.02094766    1.81443254      17
Ni     0.00000000    0.00000000    0.00000000      18
          18
Lattice="  24.8920   0.0000   0.0000   0.0000  24.8920   0.0000   0.0000   0.0000  24.8920 " ConfE="      -5937.4414" DelE="          0.8311"
Ni    -0.02651518    0.04333623   -3.48400865       1
Ni    -0.00868143    3.42165659   -0.00752605       2
Ni     0.01759592   -0.01641320    3.59998986       3
Ni     3.58931867   -0.00958304    0.04467335       4
Ni    -3.59511073   -0.02743797    0.02309687       5
Cr     0.03584491   -3.54162316    0.02471283       6
Ni     1.87082840    1.77573204    0.03383940       7
Ni    -1.95152548   -0.02813273   -1.82153206       8
Ni    -1.90405334    1.76052371    0.04777626       9
Ni    -0.01092311   -1.71658083   -1.72310367      10
Ni     0.01137223   -1.72961632    1.76014564      11
Co     1.93873022   -0.12342837   -1.78952223      12
Ni     1.76956917    0.01030753    1.77502469      13
Cr     1.75357537   -1.72586992   -0.00013047      14
Co    -1.75073028   -1.76580099   -0.00661818      15
Cr    -0.06074577    1.68081653    1.73348083      16
Co    -1.75660216    0.03424916    1.78524262      17
Ni    -0.00640391    0.89097392   -0.97344305      18
          18
Lattice="  24.8920   0.0000   0.0000   0.0000  24.8920   0.0000   0.0000   0.0000  24.8920 " ConfE="      -5938.0469" DelE="          0.2255"
Ni    -0.00981602   -0.00582828   -3.56796332       1
Ni    -0.00953283    3.51785997    0.02915959       2
Ni     0.01557914   -0.02769750    3.62006690       3
Ni     3.54920782   -0.00398852    0.04114461       4
Ni    -3.54467283   -0.01943759    0.00456203       5
Cr     0.03884512   -3.55767555    0.04296298       6
Ni     1.69160423    1.71290351    0.02727415       7
Ni    -1.77839315   -0.01760802   -1.77136256       8
Ni    -1.73177886    1.70288075    0.01489348       9
Ni     0.00274453   -1.78633409   -1.74087036      10
Ni     0.01127256   -1.74736152    1.77790764      11
Co     1.77538323   -0.08333837   -1.71608199      12
Ni     1.74891234   -0.00017077    1.79179420      13
Cr     1.75341315   -1.74621869    0.00638632      14
Co    -1.73507690   -1.78786131   -0.00015607      15
Cr    -0.08098414    1.71998282    1.81922795      16
Co    -1.75113926    0.02408745    1.80167087      17
Ni     0.00430406    1.68446294   -1.75346272      18
