          18
Lattice="  24.8920   0.0000   0.0000   0.0000  24.8920   0.0000   0.0000   0.0000  24.8920 " ConfE="      -5938.5357" DelE="          0.0000"
Ni     0.01313091    3.60157225   -0.04532240       1
Cr    -3.51952604   -0.05628597   -0.02025368       2
Cr    -0.03180759   -3.58716371   -0.03266432       3
Cr     3.54757791   -0.01366516    0.02480072       4
Cr    -0.01643339   -0.05368351   -3.45499998       5
Cr    -0.04800505   -0.02888798    3.54924665       6
Cr    -1.78918602   -0.04919213   -1.70952793       7
Cr    -1.76393755   -0.05765648    1.69470804       8
Ni     1.84503822   -1.83863211    0.01699059       9
Cr    -0.08099331   -1.78755001   -1.63149491      10
Cr    -0.05740586   -1.83099076    1.60396739      11
Co    -1.76439545    1.80252958   -0.03208179      12
Cr     1.75233542    1.77896965   -0.00562876      13
Co     0.00226230    1.78482158   -1.78461703      14
Cr    -0.02135352    1.79114117    1.74698763      15
Cr     1.77847446   -0.03932070   -1.73714171      16
Co     1.77758687   -0.03327276    1.79697535      17
Co     0.00000000    0.00000000    0.00000000      18
          18
Lattice="  24.8920   0.0000   0.0000   0.0000  24.8920   0.0000   0.0000   0.0000  24.8920 " ConfE="      -5937.8897" DelE="          0.6460"
Ni     0.01047124    3.61518871   -0.04378701       1
Cr    -3.42803929   -0.12804766   -0.05443600       2
Cr    -0.10222683   -3.55122137   -0.01790118       3
Cr     3.48729158   -0.04343437   -0.04153851       4
Cr     0.00099610   -0.01709521   -3.60023856       5
Cr     0.00420044    0.04187580    3.64690260       6
Cr    -1.67182966    0.00721490   -1.85674927       7
Cr    -1.76468694    0.04708952    1.91539383       8
Ni     1.71030161   -1.83902345    0.05664743       9
Cr    -0.01431405   -1.89676611   -1.88330396      10
Cr     0.05018672   -1.81101328    2.01544710      11
Co    -1.68465113    1.66771680   -0.02641322      12
Cr     1.69627129    1.73395843    0.00228207      13
Co    -0.00320952    1.81425067   -1.78626949      14
Cr    -0.02893537    1.73948438    1.71780953      15
Cr     1.45170462   -0.05382475   -1.59822254      16
Co     1.73333391   -0.02198107    1.78575846      17
Co    -0.99080479   -1.08663495    0.08276119      18
          18
Lattice="  24.8920   0.0000   0.0000   0.0000  24.8920   0.0000   0.0000   0.0000  24.8920 " ConfE="      -5938.6532" DelE="         -0.1175"
Ni     0.01740251    3.62867280   -0.04478208       1
Cr    -3.55723973    0.00641420   -0.03890551       2
Cr     0.01784839   -3.64474935   -0.00295765       3
Cr     3.55124934   -0.01485197   -0.03575792       4
Cr    -0.01555239   -0.04675231   -3.51623011       5
Cr    -0.05370649   -0.02613518    3.56563597       6
Cr    -1.65845283   -0.01339023   -1.66824997       7
Cr    -1.69446416   -0.00760593    1.62966254       8
Ni     1.81460199   -1.84110760    0.02544981       9
Cr    -0.02883229   -1.82038156   -1.65027394      10
Cr    -0.00273230   -1.78556418    1.64418323      11
Co    -1.71820331    1.76528796   -0.03325228      12
Cr     1.72901622    1.76111661   -0.01102378      13
Co     0.01126207    1.79503955   -1.76033322      14
Cr    -0.00987583    1.75506916    1.70161453      15
Cr     1.56297998   -0.03578901   -1.63525881      16
Co     1.73529898   -0.01623819    1.74147935      17
Co    -1.78710087   -1.81909966   -0.00259751      18
