          17
Lattice="  24.8920   0.0000   0.0000   0.0000  24.8920   0.0000   0.0000   0.0000  24.8920 " ConfE="      -5919.8978" DelE="          0.0000"
Co    -3.38481699    0.06668638    0.17459524       1
Cr     3.65970070    0.03564606    0.11156144       2
Cr     0.16223293   -3.50846889    0.14072861       3
Co     0.12663503    0.03718726   -3.45458374       4
Cr     0.17724356   -0.01755448    3.68375122       5
Ni     0.05121663    1.83978953   -1.63393784       6
Ni    -0.08659276    1.92546026    1.71921778       7
Ni    -1.70288361    0.03462019   -1.68276628       8
Ni    -1.62923741   -0.00799288    1.88673617       9
Co     1.88045977    1.98029213   -0.06298666      10
Co    -1.59656406   -1.82023555    0.13861938      11
Cr     1.95664722   -1.72666965    0.15429069      12
Cr     0.12512075   -1.70619511   -1.70505398      13
Cr     0.25983972   -1.71773896    1.95705396      14
Co     1.89437821    0.02728005   -1.66756447      15
Ni     1.61918679    0.34790526    1.58445781      16
Ni     0.00000000    0.00000000    0.00000000      17
          17
Lattice="  24.8920   0.0000   0.0000   0.0000  24.8920   0.0000   0.0000   0.0000  24.8920 " ConfE="      -5919.7636" DelE="          0.1342"
Co    -3.37595642    0.06778906    0.16849426       1
Cr     3.72403045    0.06038633    0.08541605       2
Cr     0.16078395   -3.54094464    0.14496130       3
Co     0.14397494    0.01604576   -3.42781770       4
Cr     0.18530158   -0.02911499    3.64757664       5
Ni     0.05950115    1.85491458   -1.65563291       6
Ni     0.02449651    1.87431401    1.84690186       7
Ni    -1.73801427   -0.00482230   -1.76358599       8
Ni    -1.66280737   -0.01607993    1.94713432       9
Co     1.85203156    2.10592068   -0.06030137      10
Co    -1.62538228   -1.81513181    0.14646919      11
Cr     2.04135841   -1.83243770    0.14666018      12
Cr     0.16291557   -1.65214342   -1.53158191      13
Cr     0.24699976   -1.70732123    1.87880684      14
Co     1.85813986    0.04810721   -1.57005714      15
Ni     1.60547623    0.23870265    1.28070407      16
Ni    -0.28956106    0.19868695    0.02497279      17
          17
Lattice="  24.8920   0.0000   0.0000   0.0000  24.8920   0.0000   0.0000   0.0000  24.8920 " ConfE="      -5924.3232" DelE="         -4.4254"
Co    -3.39435479    0.02728184    0.18488096       1
Cr     3.68652713    0.03554799    0.07060736       2
Cr     0.17615221   -3.53715862    0.13878735       3
Co     0.14748368    0.02894879   -3.44806013       4
Cr     0.20586155   -0.06651788    3.73895470       5
Ni     0.15343801    1.81632986   -1.63119288       6
Ni     0.16091007    1.76109990    1.90604527       7
Ni    -1.63127317    0.02556387   -1.63842008       8
Ni    -1.58488588   -0.01836624    1.90686013       9
Co     1.92889385    1.75590702    0.11963721      10
Co    -1.56664375   -1.79234304    0.14219084      11
Cr     2.01466373   -1.76776610    0.13075788      12
Cr     0.16013015   -1.72526876   -1.69186821      13
Cr     0.23050506   -1.77026856    1.95010072      14
Co     1.91964768    0.00053540   -1.66486531      15
Ni     0.18628664   -0.03739497    0.14267801      16
Ni    -1.58289285    1.82970336    0.12467048      17
