          18
Lattice="  24.8920   0.0000   0.0000   0.0000  24.8920   0.0000   0.0000   0.0000  24.8920 " ConfE="      -5924.9852" DelE="          0.0000"
Cr    -0.09218998    0.06092264   -3.20985848       1
Co    -0.02333565    3.39925325    0.09414899       2
Ni     0.01409768   -0.08981775    3.70277314       3
Co    -0.01175869   -3.68462825    0.13767945       4
Ni    -3.57161565   -0.03955602    0.19276565       5
Cr     3.54240714   -0.04289222    0.08460630       6
Co    -1.78534341   -0.02264154   -1.58120822       7
Co     1.72847210   -0.04816009   -1.60976523       8
Cr    -1.73324743    1.71295081    0.07557473       9
Cr     1.74032150    1.73249196    0.03882108      10
Ni    -0.02726945   -1.89675440   -1.61627104      11
Ni     0.02130511    1.68151762    1.92623315      12
Ni     0.01792655   -1.84663723    1.87847404      13
Ni    -1.77344000   -1.82613824    0.18523346      14
Cr     1.79471350   -1.90300911    0.06936781      15
Cr    -1.77508710    0.00945512    1.91252835      16
Ni     1.79298611   -0.09110194    1.85156666      17
Cr     0.00000000    0.00000000    0.00000000      18
          18
Lattice="  24.8920   0.0000   0.0000   0.0000  24.8920   0.0000   0.0000   0.0000  24.8920 " ConfE="      -5924.4903" DelE="          0.4949"
Cr    -0.07285916    0.02605272   -3.29291996       1
Co    -0.02925123    3.44615714    0.11412347       2
Ni     0.01428049   -0.07858082    3.68459175       3
Co    -0.00779879   -3.67983783    0.12570967       4
Ni    -3.62358895   -0.06323217    0.19795715       5
Cr     3.61747155   -0.08418691    0.10068719       6
Co    -1.86535494   -0.06675956   -1.58177020       7
Co     1.82320706   -0.08781926   -1.58612162       8
Cr    -1.95126202    1.77126888    0.17326982       9
Cr     1.92741908    1.75364442    0.12487480      10
Ni    -0.01828236   -1.79200131   -1.57085340      11
Ni     0.02619987    1.66849804    1.83958542      12
Ni     0.02648337   -1.83505001    1.85120100      13
Ni    -1.76448767   -1.79663366    0.18300051      14
Cr     1.79490491   -1.85834072    0.05875129      15
Cr    -1.70242624    0.01364750    1.80757465      16
Ni     1.78385978   -0.08349061    1.80972781      17
Cr    -0.03347318    1.01178749   -0.80775752      18
          18
Lattice="  24.8920   0.0000   0.0000   0.0000  24.8920   0.0000   0.0000   0.0000  24.8920 " ConfE="      -5925.3794" DelE="         -0.3942"
Cr    -0.04261286   -0.04354298   -3.34024738       1
Co    -0.03321101    3.49672789    0.14487928       2
Ni     0.01251997   -0.09249464    3.71849293       3
Co    -0.01044298   -3.69867936    0.13746189       4
Ni    -3.60370974   -0.06037162    0.20358059       5
Cr     3.56863010   -0.06588642    0.09503250       6
Co    -1.75281950   -0.01946901   -1.52914105       7
Co     1.70104210   -0.04513935   -1.53721006       8
Cr    -1.75784123    1.64585453    0.12419977       9
Cr     1.75451348    1.66669748    0.07976296      10
Ni    -0.02241546   -1.83265561   -1.56903040      11
Ni     0.01451182    1.64806699    1.86719465      12
Ni     0.01752088   -1.85333035    1.88101798      13
Ni    -1.75922406   -1.80522954    0.20481353      14
Cr     1.78588982   -1.87257042    0.07526177      15
Cr    -1.77227544   -0.01556004    1.91642281      16
Ni     1.78257939   -0.11268557    1.84793065      17
Cr    -0.04622247    1.73915747   -1.60109109      18
