          18
Lattice="  24.8920   0.0000   0.0000   0.0000  24.8920   0.0000   0.0000   0.0000  24.8920 " ConfE="      -5941.0080" DelE="          0.0000"
Cr    -0.04309590    3.20870898   -0.05265526       1
Cr    -3.54533998   -0.13855431   -0.05390908       2
Cr    -0.03325422   -3.77699993   -0.03326257       3
Co     3.57159457   -0.16892967   -0.02728787       4
Cr    -0.06251307   -0.16362706   -3.62764066       5
Cr    -0.02036996   -0.21028417    3.48951789       6
Ni    -1.77747270   -0.16348733   -1.77116933       7
Ni    -1.81198125   -0.11030111    1.70780222       8
Co    -0.00526056    1.59684439   -1.82622617       9
Co    -0.01739631    1.62246229    1.75633361      10
Ni     1.76574322   -1.94740886   -0.03474471      11
Ni    -0.01788189   -1.93909970   -1.77602632      12
Co     1.83946050    1.59365860   -0.02722419      13
Cr    -1.84771884   -1.96580609   -0.00982977      14
Cr     1.77204009   -0.16684002   -1.77954233      15
Co     1.77121267   -0.18846293    1.75056846      16
Co    -0.02973920   -1.94033126    1.70431156      17
Cr     0.00000000    0.00000000    0.00000000      18
          18
Lattice="  24.8920   0.0000   0.0000   0.0000  24.8920   0.0000   0.0000   0.0000  24.8920 " ConfE="      -5940.3113" DelE="          0.6967"
Cr     0.02367098    3.27358872   -0.04307995       1
Cr    -3.50544216   -0.16273928   -0.05088161       2
Cr    -0.04309315   -3.74131043   -0.04099105       3
Co     3.56904669   -0.15683694   -0.02130494       4
Cr    -0.05105145   -0.19059995   -3.71376458       5
Cr     0.01323152   -0.32255774    3.58145670       6
Ni    -1.79092113   -0.21021143   -1.91566141       7
Ni    -1.81029144   -0.18518740    1.87448836       8
Co     0.02900284    1.59157207   -1.98049417       9
Co     0.02496915    1.61208776    1.93832677      10
Ni     1.73507276   -1.91323754   -0.04016798      11
Ni    -0.02051601   -1.90291160   -1.78680844      12
Co     1.70376932    1.53271672   -0.02548947      13
Cr    -1.79999360   -1.90121418   -0.01077958      14
Cr     1.69916216   -0.13166660   -1.72081199      15
Co     1.72463596   -0.18764367    1.74026087      16
Co    -0.03727226   -1.91443049    1.69383362      17
Cr    -0.81029958    0.80850600   -0.00807630      18
          18
Lattice="  24.8920   0.0000   0.0000   0.0000  24.8920   0.0000   0.0000   0.0000  24.8920 " ConfE="      -5940.7686" DelE="          0.2395"
Cr     0.05008754    3.33596548   -0.03344304       1
Cr    -3.58524583   -0.22824088   -0.05707224       2
Cr    -0.03075397   -3.77423556   -0.03504778       3
Co     3.59167356   -0.17340760   -0.01884462       4
Cr    -0.05018788   -0.17409023   -3.64366436       5
Cr    -0.00893319   -0.23759482    3.52028346       6
Ni    -1.75296688   -0.21924302   -1.78796926       7
Ni    -1.77982889   -0.17503127    1.73005952       8
Co     0.01806504    1.55001574   -1.81895843       9
Co    -0.01228751    1.58112052    1.75255951      10
Ni     1.76103543   -1.94226688   -0.03721075      11
Ni     0.00542049   -1.94591701   -1.77799961      12
Co     1.71908266    1.50686838   -0.03137671      13
Cr    -1.79270317   -1.93549298   -0.00836313      14
Cr     1.76425328   -0.16067553   -1.75967110      15
Co     1.74813353   -0.20756297    1.74244484      16
Co    -0.01954558   -1.95082660    1.70222740      17
Cr    -1.70610012    1.51967527   -0.04334134      18
