          18
Lattice="  24.8920   0.0000   0.0000   0.0000  24.8920   0.0000   0.0000   0.0000  24.8920 " ConfE="      -5946.5874" DelE="          0.0000"
Cr     0.09191405   -0.05233507   -3.46193932       1
Co     3.48062103    0.03902207    0.00656930       2
Co    -0.02905045    0.02394078    3.64476533       3
Ni    -3.62368592    0.00026759    0.05134360       4
Cr    -0.01521106   -3.48603196    0.01460922       5
Co    -0.01408508    3.55186845    0.05197039       6
Co    -0.01755584   -1.73372926   -1.76024773       7
Cr     0.01639177    1.69928222   -1.67943233       8
Ni     1.76565111   -1.71386697    0.01233411       9
Cr     1.76885396    1.67141740   -0.03709816      10
Cr    -1.84136021    0.00233845   -1.76623590      11
Co     1.72527233    0.02870566    1.86493629      12
Co    -1.78762137    0.02292013    1.84536257      13
Ni    -1.82286909   -1.74372252    0.03436496      14
Ni    -1.81390582    1.75262185    0.04102345      15
Cr    -0.05968670   -1.71515553    1.83353973      16
Co    -0.01790774    1.77451369    1.82387741      17
Co     0.00000000    0.00000000    0.00000000      18
          18
Lattice="  24.8920   0.0000   0.0000   0.0000  24.8920   0.0000   0.0000   0.0000  24.8920 " ConfE="      -5946.0828" DelE="          0.5046"
Cr     0.10966504   -0.03687311   -3.40050034       1
Co     3.43867060    0.03390132   -0.02218210       2
Co    -0.02196595    0.03553801    3.62881037       3
Ni    -3.62559480    0.00424607    0.03998544       4
Cr    -0.02899627   -3.54795851    0.05527278       5
Co    -0.04738100    3.63208474    0.07006616       6
Co    -0.03397710   -1.93811499   -1.77813667       7
Cr    -0.02555652    1.99461890   -1.71411081       8
Ni     1.79548543   -1.83074729    0.01452285       9
Cr     1.76998034    1.86167986    0.00308950      10
Cr    -1.77873197    0.01665433   -1.75671755      11
Co     1.66254976    0.03718318    1.74904457      12
Co    -1.76345502    0.02688209    1.80606687      13
Ni    -1.78818822   -1.72007085    0.00932934      14
Ni    -1.78639286    1.75078237    0.02903497      15
Cr    -0.04343853   -1.64281802    1.72737954      16
Co    -0.02748259    1.78699363    1.78952687      17
Co     0.57537022    0.07562888   -0.69195772      18
          18
Lattice="  24.8920   0.0000   0.0000   0.0000  24.8920   0.0000   0.0000   0.0000  24.8920 " ConfE="      -5946.8276" DelE="         -0.2402"
Cr     0.02000683   -0.03948496   -3.55086481       1
Co     3.51053358    0.02961755    0.03483308       2
Co    -0.02535264    0.02963129    3.66574418       3
Ni    -3.62727289   -0.00119931    0.04658947       4
Cr    -0.03282477   -3.52020758    0.03114641       5
Co    -0.02959477    3.58466043    0.05910032       6
Co    -0.05714302   -1.73221797   -1.73037125       7
Cr     0.00780118    1.69265162   -1.64595706       8
Ni     1.70201133   -1.70969303    0.06500643       9
Cr     1.70342022    1.71214397    0.06067344      10
Cr    -1.76851488    0.00121311   -1.75160533      11
Co     1.68048236    0.04018846    1.82216828      12
Co    -1.77240156    0.01873156    1.84357111      13
Ni    -1.78770418   -1.70948542    0.04370944      14
Ni    -1.77846210    1.71915226    0.04140025      15
Cr    -0.08692483   -1.67535989    1.83469384      16
Co    -0.03570746    1.76363803    1.81621886      17
Co     1.65966575    0.01155367   -1.69752836      18
