          18
Lattice="  24.8920   0.0000   0.0000   0.0000  24.8920   0.0000   0.0000   0.0000  24.8920 " ConfE="      -5938.0966" DelE="          0.0000"
Cr     3.44607689   -0.05944608   -0.01340764       1
Co     0.00661440   -0.01220195    3.44049649       2
Cr    -3.59302080    0.01875792   -0.03757666       3
Co     0.01974245   -0.07682116   -3.64636841       4
Ni    -0.00465732    3.54750109   -0.02050123       5
Cr    -0.04893465   -3.53867248   -0.02966700       6
Ni     1.74384841    1.71879318    0.04303203       7
Cr     1.72432097   -1.73851474    0.09926079       8
Co    -0.04460294    1.78172291    1.77283263       9
Co     0.03462768   -1.76121555    1.75519121      10
Co     1.75362177   -0.06891672   -1.86627706      11
Cr    -1.86891006   -0.03624667    1.77226121      12
Ni    -1.77817612    0.01247268   -1.82287580      13
Ni     0.00259615    1.76598249   -1.82745671      14
Co     0.03489325   -1.82460464   -1.82150907      15
Ni    -1.79613390    1.78222385   -0.02849210      16
Ni    -1.78282818   -1.75233158   -0.03676058      17
Ni     0.00000000    0.00000000    0.00000000      18
          18
Lattice="  24.8920   0.0000   0.0000   0.0000  24.8920   0.0000   0.0000   0.0000  24.8920 " ConfE="      -5937.6741" DelE="          0.4225"
Cr     3.35696310   -0.05218681   -0.00732712       1
Co     0.01736492   -0.02355933    3.40123454       2
Cr    -3.58794254    0.01929894   -0.03002743       3
Co     0.02937153   -0.07496788   -3.66225385       4
Ni    -0.01496320    3.60482242   -0.03568815       5
Cr    -0.10161011   -3.59494304   -0.02221295       6
Ni     1.76504051    1.89550543   -0.02453740       7
Cr     1.75860183   -1.98077693   -0.08108855       8
Co    -0.05232324    1.87513119    1.77647777       9
Co     0.02439711   -1.94329982    1.82870236      10
Co     1.72999035   -0.05715345   -1.82538284      11
Cr    -1.77228885   -0.04090318    1.74191823      12
Ni    -1.73436152    0.02408422   -1.80288824      13
Ni     0.01080124    1.78205668   -1.82284107      14
Co     0.03987445   -1.81824732   -1.81970169      15
Ni    -1.76133655    1.77648207   -0.02937569      16
Ni    -1.68976524   -1.70160979   -0.01730194      17
Ni     0.64577959   -0.07416370    0.54931101      18
          18
Lattice="  24.8920   0.0000   0.0000   0.0000  24.8920   0.0000   0.0000   0.0000  24.8920 " ConfE="      -5938.3950" DelE="         -0.2983"
Cr     3.49853470   -0.06186534   -0.07478195       1
Co    -0.02873986   -0.01982187    3.50189601       2
Cr    -3.60838216    0.02036699   -0.03898633       3
Co     0.01970605   -0.07626626   -3.66779745       4
Ni    -0.01400990    3.56415588   -0.03053602       5
Cr    -0.09648045   -3.57762743   -0.03261797       6
Ni     1.70192683    1.73055659   -0.03044615       7
Cr     1.65622608   -1.78088002   -0.06275071       8
Co    -0.07846687    1.76172102    1.73749915       9
Co    -0.00725847   -1.76601327    1.72454490      10
Co     1.72492301   -0.06784212   -1.82353145      11
Cr    -1.81554063   -0.02861449    1.75421521      12
Ni    -1.75874405    0.01816615   -1.80982918      13
Ni    -0.01087676    1.75382325   -1.82481893      14
Co     0.02195051   -1.80686265   -1.81697668      15
Ni    -1.77744743    1.75346568   -0.03614364      16
Ni    -1.74283781   -1.70297434   -0.04041899      17
Ni     1.70089586   -0.01056652    1.67350030      18
