          18
Lattice="  24.8920   0.0000   0.0000   0.0000  24.8920   0.0000   0.0000   0.0000  24.8920 " ConfE="      -5948.8284" DelE="          0.0000"
Ni    -3.47872159    0.07011437    0.00358966       1
Co    -0.13463481    3.54010211    0.01540615       2
Cr     3.59025825    0.02559265    0.07971430       3
Co     0.02788038   -3.45668724    0.01756594       4
Ni     0.01877528    0.05990540   -3.55004763       5
Ni     0.01329622    0.06395769    3.57524946       6
Ni    -1.76737735    0.05068591   -1.74813405       7
Ni    -1.74810709    0.06571161    1.76671811       8
Ni    -0.01272130    1.77908627   -1.71982376       9
Ni    -0.05278453    1.81913363    1.78356879      10
Co    -1.78952738   -1.78124997   -0.02933437      11
Ni     1.77592939    1.80727949    0.02964288      12
Co     1.84249388   -1.71714504   -0.00621840      13
Co     0.01702587   -1.72225269   -1.73086134      14
Ni     0.01459804   -1.70028995    1.79903419      15
Cr     1.75513898   -0.05161855   -1.68767362      16
Ni     1.77940245    0.04533652    1.80475729      17
Cr     0.00000000    0.00000000    0.00000000      18
          18
Lattice="  24.8920   0.0000   0.0000   0.0000  24.8920   0.0000   0.0000   0.0000  24.8920 " ConfE="      -5947.9122" DelE="          0.9163"
Ni    -3.42784626    0.07446746    0.00499023       1
Co    -0.16947712    3.46072730    0.02278493       2
Cr     3.56960191    0.04251791    0.09014269       3
Co     0.01467998   -3.45604959    0.02053341       4
Ni     0.01754671    0.05561337   -3.61072478       5
Ni     0.01939722    0.05294157    3.62832934       6
Ni    -1.80240064    0.02303542   -1.89969164       7
Ni    -1.80265842    0.05094932    1.92729407       8
Ni     0.02288371    1.81132701   -1.88237238       9
Ni    -0.02357569    1.84363690    1.92586315      10
Co    -1.77114655   -1.72169360   -0.03304899      11
Ni     1.68646510    1.77890362    0.01164574      12
Co     1.80008984   -1.66986381   -0.00325163      13
Co     0.00025583   -1.63961534   -1.69139211      14
Ni    -0.01883468   -1.63542723    1.75828119      15
Cr     1.65988984   -0.06748947   -1.62701216      16
Ni     1.72390469    0.06380219    1.77919854      17
Cr    -0.78890020    0.78403379    0.01941933      18
          18
Lattice="  24.8920   0.0000   0.0000   0.0000  24.8920   0.0000   0.0000   0.0000  24.8920 " ConfE="      -5948.9382" DelE="         -0.1097"
Ni    -3.53316107    0.03093866    0.01715446       1
Co    -0.04115905    3.59788137    0.01151839       2
Cr     3.60834444    0.01893359    0.08912655       3
Co     0.02622869   -3.48547795    0.02677862       4
Ni     0.01700941    0.06254358   -3.56480429       5
Ni     0.02482291    0.05481982    3.58894869       6
Ni    -1.75668385    0.03559261   -1.73268502       7
Ni    -1.73683355    0.04929236    1.75586844       8
Ni     0.00868697    1.74715119   -1.70321285       9
Ni    -0.02127950    1.81254425    1.78703568      10
Co    -1.78872294   -1.76453539   -0.03820296      11
Ni     1.75189344    1.75974355    0.02609850      12
Co     1.83601200   -1.70623549   -0.00573559      13
Co     0.03478538   -1.68347278   -1.69417235      14
Ni     0.01487482   -1.68052976    1.76365548      15
Cr     1.72185505   -0.09784754   -1.63674063      16
Ni     1.77320904    0.03124909    1.78674959      17
Cr    -1.79454938    1.84303872    0.03579901      18
