          18
Lattice="  24.8920   0.0000   0.0000   0.0000  24.8920   0.0000   0.0000   0.0000  24.8920 " ConfE="      -5934.7455" DelE="          0.0000"
Ni    -0.01532993    3.49354794    0.01504277       1
Ni    -0.04117791    0.08455180    3.49476223       2
Ni    -0.04827396   -3.55369359    0.00753653       3
Cr    -0.05183479   -0.05067969   -3.60192933       4
Co    -3.58723498    0.00353083    0.00298768       5
Cr     3.52770349   -0.04865259   -0.02243953       6
Cr    -1.76111038    1.72432028    0.07420126       7
Ni     1.73779400    1.72595253    0.02079533       8
Co    -1.77117103    0.06787432    1.72603709       9
Cr     1.70998346   -0.03146954    1.82893390      10
Co    -0.01549275    1.72522786   -1.84383687      11
Co     0.00229959   -1.79867655    1.79300355      12
Ni    -0.05361713   -1.77018939   -1.77640289      13
Cr    -1.87912443    0.04102547   -1.74894690      14
Cr     1.78632188   -0.00570020   -1.84704677      15
Ni    -1.82618816   -1.75013679    0.01044662      16
Co     1.77003116   -1.76383190    0.00356914      17
Ni     0.00000000    0.00000000    0.00000000      18
          18
Lattice="  24.8920   0.0000   0.0000   0.0000  24.8920   0.0000   0.0000   0.0000  24.8920 " ConfE="      -5934.0989" DelE="          0.6466"
Ni     0.00359777    3.45854683    0.01548511       1
Ni    -0.04527603    0.09886922    3.43910978       2
Ni    -0.04855218   -3.54338234    0.01710306       3
Cr    -0.06252934   -0.03276021   -3.61485930       4
Co    -3.64219499   -0.00277463   -0.00045496       5
Cr     3.59813006   -0.04777664   -0.03256034       6
Cr    -1.90761021    1.77238205   -0.01109143       7
Ni     1.89508238    1.75469132   -0.04362451       8
Co    -1.98325757   -0.03347409    1.78224143       9
Cr     1.91630845   -0.11805948    1.87776445      10
Co    -0.00989920    1.67332118   -1.76661016      11
Co    -0.01694803   -1.75228707    1.77292440      12
Ni    -0.05798919   -1.69659054   -1.71579646      13
Cr    -1.86043603    0.04174442   -1.69947337      14
Cr     1.77005289    0.00436351   -1.79412585      15
Ni    -1.83938607   -1.72956846    0.01477068      16
Co     1.75227716   -1.69055820    0.02151859      17
Ni     0.01768019    0.74092947    0.85730134      18
          18
Lattice="  24.8920   0.0000   0.0000   0.0000  24.8920   0.0000   0.0000   0.0000  24.8920 " ConfE="      -5934.6514" DelE="          0.0941"
Ni    -0.01841128    3.52060732   -0.01983407       1
Ni    -0.04447235    0.02740381    3.57377606       2
Ni    -0.04847984   -3.54677979   -0.00137941       3
Cr    -0.05584628   -0.04848642   -3.64238550       4
Co    -3.62143431   -0.00826866   -0.00375341       5
Cr     3.57833110   -0.05244602   -0.04175215       6
Cr    -1.76060426    1.63197270    0.01669734       7
Ni     1.72137331    1.65017233   -0.01071353       8
Co    -1.77393699    0.01930739    1.70827460       9
Cr     1.69229328   -0.12628338    1.79674637      10
Co    -0.02663307    1.66770185   -1.79347427      11
Co     0.00788417   -1.73881903    1.76515605      12
Ni    -0.05783365   -1.71687596   -1.75718220      13
Cr    -1.86751969    0.03237362   -1.75585802      14
Cr     1.77203157   -0.01415714   -1.85033596      15
Ni    -1.80838546   -1.71421095   -0.01046371      16
Co     1.73968093   -1.69056969   -0.01830896      17
Ni    -0.00297109    1.73121597    1.75994456      18
