          18
Lattice="  24.8920   0.0000   0.0000   0.0000  24.8920   0.0000   0.0000   0.0000  24.8920 " ConfE="      -5937.3094" DelE="          0.0000"
Ni    -0.03501101   -3.55858683   -0.06568248       1
Ni    -0.05350760    3.51706178   -0.08064116       2
Co    -0.05180736   -0.02479910    3.39736423       3
Cr    -0.04451902    0.04614566   -3.72188206       4
Cr    -3.56018423   -0.01946437   -0.14444336       5
Co     3.46327115    0.01353617   -0.05605147       6
Ni    -1.76649124   -1.79809697   -0.07241043       7
Ni     1.67391945   -1.79424441   -0.05862534       8
Ni    -1.79670955   -0.05375369    1.68384944       9
Co     1.70714939   -0.02184992    1.68166110      10
Ni    -0.03022049    1.73196663   -1.86391091      11
Cr    -0.05117783   -1.73496647   -1.90005102      12
Co    -1.76821444   -0.02495587   -1.85988509      13
Cr     1.79032645    0.00067001   -1.84729419      14
Co    -1.78861724    1.73127855   -0.08817537      15
Cr     1.72798703    1.75563863   -0.06735716      16
Cr    -0.08669061    1.73222637    1.73250202      17
Cr     0.00000000    0.00000000    0.00000000      18
          18
Lattice="  24.8920   0.0000   0.0000   0.0000  24.8920   0.0000   0.0000   0.0000  24.8920 " ConfE="      -5936.5733" DelE="          0.7361"
Ni    -0.03074892   -3.49850242   -0.06414562       1
Ni    -0.05848196    3.53528340   -0.07569711       2
Co    -0.05860931   -0.01546640    3.34193879       3
Cr    -0.04684932    0.04706661   -3.69143591       4
Cr    -3.64373437   -0.00165555   -0.14860885       5
Co     3.51908870    0.01677908   -0.08598395       6
Ni    -1.86643953   -1.80101152   -0.08987967       7
Ni     1.84273353   -1.84074047   -0.14651965       8
Ni    -1.93645085   -0.01819381    1.69435893       9
Co     1.91061540    0.03937192    1.73630739      10
Ni    -0.03761393    1.70271847   -1.81383269      11
Cr    -0.07536836   -1.67742358   -1.85227512      12
Co    -1.75480271   -0.03711034   -1.81215596      13
Cr     1.70446494   -0.00294113   -1.76819770      14
Co    -1.75944479    1.70740057   -0.04792071      15
Cr     1.64672546    1.67498711   -0.02923527      16
Cr    -0.10315177    1.67134529    1.68227397      17
Cr     0.07262842   -0.77834164    0.79092972      18
          18
Lattice="  24.8920   0.0000   0.0000   0.0000  24.8920   0.0000   0.0000   0.0000  24.8920 " ConfE="      -5937.3622" DelE="         -0.0528"
Ni    -0.04321638   -3.56913860   -0.10080764       1
Ni    -0.05291823    3.52747410   -0.08419907       2
Co    -0.05650954   -0.01597888    3.45156130       3
Cr    -0.05065680    0.05068833   -3.72456136       4
Cr    -3.58005002   -0.00985946   -0.15119887       5
Co     3.49670092    0.01296002   -0.07234224       6
Ni    -1.76469257   -1.76816452   -0.08953520       7
Ni     1.67109123   -1.75222998   -0.11110565       8
Ni    -1.80328122   -0.02197749    1.65700330       9
Co     1.70232919   -0.00367247    1.64994302      10
Ni    -0.02881231    1.71288001   -1.84096227      11
Cr    -0.06900418   -1.65954431   -1.87290133      12
Co    -1.75398245   -0.02553824   -1.85669082      13
Cr     1.75391726    0.01708493   -1.84918490      14
Co    -1.76963942    1.72917366   -0.08441621      15
Cr     1.68435280    1.70987541   -0.07116819      16
Cr    -0.05895224    1.64093548    1.64440964      17
Cr     0.01571606   -1.69508779    1.71680320      18
