          18
Lattice="  24.8920   0.0000   0.0000   0.0000  24.8920   0.0000   0.0000   0.0000  24.8920 " ConfE="      -5930.3901" DelE="          0.0000"
Cr     0.15927922    3.37941951   -0.00740351       1
Cr     3.42841818    0.11921920   -0.01146055       2
Ni    -0.04965389   -3.59234383    0.01040314       3
Ni    -3.58224723   -0.03786478   -0.01109251       4
Cr    -0.02799317   -0.02011736   -3.54568517       5
Cr    -0.05872415   -0.01288913    3.45921331       6
Ni    -0.00451900    1.72712161   -1.75860151       7
Cr    -0.03443196    1.74287927    1.76482481       8
Co     1.77180978   -0.03285044   -1.77032764       9
Co     1.72976167    0.01553308    1.74560663      10
Co    -1.80381246    1.77517268    0.01589081      11
Ni     1.73888692   -1.80982444    0.01295748      12
Cr    -1.78534704   -1.81788458    0.05933135      13
Ni    -1.80247446   -0.04733106   -1.76494196      14
Co    -1.78426552   -0.00423083    1.79882262      15
Cr    -0.01945315   -1.81451415   -1.78038192      16
Co    -0.05632378   -1.78378861    1.77379101      17
Ni     0.00000000    0.00000000    0.00000000      18
          18
Lattice="  24.8920   0.0000   0.0000   0.0000  24.8920   0.0000   0.0000   0.0000  24.8920 " ConfE="      -5929.8806" DelE="          0.5095"
Cr     0.10869723    3.42116099   -0.02225169       1
Cr     3.45892749    0.10421293    0.02457464       2
Ni    -0.03296228   -3.58867364    0.01248785       3
Ni    -3.57502594   -0.02588331   -0.01252721       4
Cr    -0.06234288   -0.02250851   -3.61302249       5
Cr    -0.05852348   -0.02874003    3.53389293       6
Ni    -0.07652343    1.76534743   -1.89457041       7
Cr    -0.13035152    1.74557482    1.88201224       8
Co     1.76771638   -0.07816075   -1.93878734       9
Co     1.70798864   -0.08745888    1.95451489      10
Co    -1.73649462    1.75850270    0.00661318      11
Ni     1.70628614   -1.70097128    0.02038310      12
Cr    -1.69185406   -1.73502631    0.06771261      13
Ni    -1.75606243   -0.03237007   -1.73857472      14
Co    -1.72625894    0.01431457    1.76483699      15
Cr    -0.00680788   -1.73857495   -1.72919414      16
Co    -0.06478881   -1.74444418    1.73886459      17
Ni     1.11046156    1.07457786    0.01166860      18
          18
Lattice="  24.8920   0.0000   0.0000   0.0000  24.8920   0.0000   0.0000   0.0000  24.8920 " ConfE="      -5930.3760" DelE="          0.0141"
Cr    -0.06606803    3.50216000   -0.00734302       1
Cr     3.50770265   -0.05326105   -0.01638695       2
Ni    -0.05482833   -3.61923037    0.01072043       3
Ni    -3.60040068   -0.04586215   -0.01273955       4
Cr    -0.04257591   -0.02535365   -3.56964362       5
Cr    -0.06594769   -0.01831609    3.49257369       6
Ni    -0.04098227    1.70568720   -1.74382500       7
Cr    -0.07829328    1.69353482    1.73213360       8
Co     1.72911384   -0.06171597   -1.77514462       9
Co     1.67330649   -0.02902479    1.75564867      10
Co    -1.77413944    1.73778630    0.02221776      11
Ni     1.69013582   -1.78890779    0.01190534      12
Cr    -1.73056635   -1.77872538    0.06520409      13
Ni    -1.77583856   -0.06048653   -1.73203922      14
Co    -1.75048802   -0.00427950    1.76392932      15
Cr    -0.03307051   -1.78782354   -1.74288007      16
Co    -0.08522226   -1.76220963    1.72638865      17
Ni     1.70883916    1.70207595    0.00532462      18
