          18
Lattice="  24.8920   0.0000   0.0000   0.0000  24.8920   0.0000   0.0000   0.0000  24.8920 " ConfE="      -5943.1664" DelE="          0.0000"
Ni     0.04196847    3.53875089    0.03738528       1
Ni    -3.47898453    0.06220496    0.04429041       2
Ni     0.03371389    0.00800487    3.57015203       3
Ni     3.60643174    0.00417792    0.01013580       4
Co     0.02114654    0.01421738   -3.48167063       5
Cr     0.02080030   -3.51837168    0.01411002       6
Ni     0.00671475    1.77505425   -1.73334334       7
Ni     0.02503748    1.76966883    1.76664287       8
Co    -1.75282123    0.04104617   -1.71038958       9
Ni    -1.75831518   -1.77210328    0.03185187      10
Ni     1.82741220    1.78305816    0.01903713      11
Cr    -1.74537935    0.10006172    1.74833748      12
Co     0.05072232   -1.76672963   -1.72946701      13
Co     1.80857603    0.00680129   -1.72727319      14
Co     0.01976708   -1.76642635    1.78266746      15
Co     1.80716126   -1.76963499    0.03786802      16
Cr     1.81236633    0.01119377    1.76719781      17
Cr     0.00000000    0.00000000    0.00000000      18
          18
Lattice="  24.8920   0.0000   0.0000   0.0000  24.8920   0.0000   0.0000   0.0000  24.8920 " ConfE="      -5941.3207" DelE="          1.8458"
Ni     0.01359697    3.52205817    0.03787801       1
Ni    -3.42922948    0.06470789    0.04482102       2
Ni     0.05844273    0.00606400    3.62522765       3
Ni     3.51618800    0.00179986   -0.03502970       4
Co     0.08988712   -0.00013005   -3.44909787       5
Cr     0.00163571   -3.52266836   -0.01502945       6
Ni     0.04599673    1.88724010   -1.86985580       7
Ni     0.09718137    1.84661868    1.93126053       8
Co    -1.70968575   -0.01309836   -1.82877154       9
Ni    -1.68428385   -1.68903424    0.01292157      10
Ni     1.81730347    1.90056675    0.05097208      11
Cr    -1.74437142   -0.02854445    1.95609192      12
Co     0.00981011   -1.92639612   -1.79715133      13
Co     0.91789221   -0.06703369   -0.86537331      14
Co     0.05710182   -1.71639946    1.74770770      15
Co     1.86314551   -1.94544663    0.05520742      16
Cr     1.68674795    0.00539338    1.68568755      17
Cr    -0.93416571    0.92856201    0.08226251      18
          18
Lattice="  24.8920   0.0000   0.0000   0.0000  24.8920   0.0000   0.0000   0.0000  24.8920 " ConfE="      -5943.0493" DelE="          0.1171"
Ni     0.06604162    3.52985581    0.02780998       1
Ni    -3.53115697    0.00906291    0.03621112       2
Ni     0.05178830    0.00006789    3.58926997       3
Ni     3.57845338   -0.01202537   -0.04331515       4
Co     0.05675133    0.00197118   -3.48535290       5
Cr     0.03191950   -3.46661439   -0.00502521       6
Ni     0.06332376    1.72225518   -1.76087435       7
Ni     0.06444763    1.76627868    1.80850487       8
Co    -1.77197192    0.00517283   -1.75632657       9
Ni    -1.75083989   -1.74645599    0.02849604      10
Ni     1.81169184    1.72241660   -0.01201506      11
Cr    -1.74623476    0.03174156    1.81318975      12
Co     0.08452311   -1.77190558   -1.74028037      13
Co     0.04105645   -0.02105220    0.03216641      14
Co     0.04917737   -1.77443861    1.78506879      15
Co     1.82575644   -1.75332285   -0.00932494      16
Cr     1.85127518    0.00965387    1.80136245      17
Cr    -1.72796084    1.69605185    0.05398134      18
