          18
Lattice="  24.8920   0.0000   0.0000   0.0000  24.8920   0.0000   0.0000   0.0000  24.8920 " ConfE="      -5950.6354" DelE="          0.0000"
Co     3.51815324    0.03749296   -0.03959179       1
Cr     0.02112074    3.46667710   -0.01165020       2
Ni    -0.04607678    0.01442110   -3.58586851       3
Co    -0.08275067   -0.00482182    3.54081187       4
Cr    -0.01858244   -3.56500122   -0.06705688       5
Cr    -3.56271165   -0.10414160    0.04118969       6
Ni     1.73461119    0.00117255    1.74747356       7
Co     1.76001495    0.07203799   -1.77076971       8
Cr     0.10782008    1.77001414   -1.70973658       9
Co    -0.05709020    1.76874622    1.71395854      10
Ni     1.76700188   -1.80970759   -0.02554049      11
Ni    -0.02243472   -1.81127431    1.76507586      12
Co    -1.86677858    1.73516419   -0.02593294      13
Cr     0.07141354   -1.75910981   -1.82980558      14
Cr    -1.80872247    0.04573083   -1.76936628      15
Cr    -1.81375392   -0.02752043    1.79731399      16
Co    -1.78215126   -1.82306954   -0.05620871      17
Ni     0.00000000    0.00000000    0.00000000      18
          18
Lattice="  24.8920   0.0000   0.0000   0.0000  24.8920   0.0000   0.0000   0.0000  24.8920 " ConfE="      -5949.9964" DelE="          0.6390"
Co     3.45527835    0.06589180   -0.06264481       1
Cr     0.03917372    3.46532354   -0.02627161       2
Ni    -0.09451506   -0.02616000   -3.66408483       3
Co    -0.08472703   -0.02722734    3.60274137       4
Cr    -0.00308670   -3.57543677   -0.05763990       5
Cr    -3.57794071   -0.09364234    0.04877792       6
Ni     1.73337816   -0.04170854    1.86126772       7
Co     1.75457384   -0.07326536   -1.98199583       8
Cr    -0.09932079    1.75650060   -1.94313687       9
Co    -0.13944874    1.76712367    1.89325069      10
Ni     1.72445040   -1.73756343   -0.02870166      11
Ni    -0.02611653   -1.76855129    1.74472745      12
Co    -1.78903604    1.73320121   -0.00274867      13
Cr     0.06298291   -1.68859650   -1.80420112      14
Cr    -1.69597386   -0.00636672   -1.59210189      15
Cr    -1.76199412   -0.00893738    1.71893703      16
Co    -1.74808179   -1.80940394   -0.04588302      17
Ni     0.94327877    0.99400285   -0.07301182      18
          18
Lattice="  24.8920   0.0000   0.0000   0.0000  24.8920   0.0000   0.0000   0.0000  24.8920 " ConfE="      -5950.6381" DelE="         -0.0027"
Co     3.57476536   -0.01000902   -0.02720637       1
Cr    -0.01859280    3.52498745   -0.03332880       2
Ni    -0.06488306   -0.00134147   -3.62503158       3
Co    -0.08502753   -0.01433972    3.56811433       4
Cr    -0.01120947   -3.57645977   -0.06451277       5
Cr    -3.60614181   -0.11847050    0.05431354       6
Ni     1.71269480   -0.01959413    1.73816661       7
Co     1.71650463    0.00623632   -1.78432627       8
Cr    -0.01262685    1.66531470   -1.73895142       9
Co    -0.07875576    1.70153009    1.69392189      10
Ni     1.74478059   -1.77215867   -0.02576469      11
Ni    -0.03134709   -1.76860114    1.72878400      12
Co    -1.82460426    1.70856994   -0.01971638      13
Cr     0.06621022   -1.65559334   -1.78508769      14
Cr    -1.76616851   -0.00266634   -1.64824836      15
Cr    -1.79386070   -0.01495148    1.73404790      16
Co    -1.76202315   -1.80798640   -0.05046317      17
Ni     1.74489293    1.73238123   -0.02699518      18
