          18
Lattice="  24.8920   0.0000   0.0000   0.0000  24.8920   0.0000   0.0000   0.0000  24.8920 " ConfE="      -5933.6740" DelE="          0.0000"
Ni    -3.46536494    0.02782696    0.01848941       1
Cr     0.01848234    3.57014194   -0.00061502       2
Ni     3.59456445    0.01900092   -0.01508779       3
Co     0.07324324   -3.58936157    0.04861587       4
Cr     0.04771119    0.09096503   -3.53202794       5
Ni     0.01234971    0.03085684    3.53604360       6
Co    -1.71458790    0.11801940   -1.72155193       7
Cr    -1.75088360   -0.03793477    1.79860021       8
Cr    -0.05243238    1.77970113   -1.70555131       9
Cr    -0.20952827    1.77109525    1.56992599      10
Ni    -1.73316528   -1.80848995    0.01330407      11
Ni     1.79501633    1.78288687   -0.00905747      12
Ni     1.79250690   -1.75104647   -0.01247311      13
Ni     0.03450842   -1.73573123   -1.79956143      14
Co     0.04528775   -1.81687992    1.84290960      15
Co     1.78358225    0.05066705   -1.80052046      16
Ni     1.75882125    0.03562097    1.77675905      17
Ni     0.00000000    0.00000000    0.00000000      18
          18
Lattice="  24.8920   0.0000   0.0000   0.0000  24.8920   0.0000   0.0000   0.0000  24.8920 " ConfE="      -5933.2626" DelE="          0.4114"
Ni    -3.47698416    0.01701003    0.01330916       1
Cr    -0.00124323    3.49216826    0.02216769       2
Ni     3.58873147    0.03125524   -0.01396972       3
Co     0.06664225   -3.58157103    0.04972720       4
Cr     0.03145330    0.06585224   -3.62436907       5
Ni     0.01574656    0.00808903    3.58416947       6
Co    -1.74743939    0.08809681   -1.83505316       7
Cr    -1.78964727   -0.05201869    1.90248370       8
Cr     0.07329446    1.81376942   -1.94624077       9
Cr    -0.00910803    1.91387581    1.98322645      10
Ni    -1.68275338   -1.72581696    0.01499623      11
Ni     1.77068535    1.80002181    0.00588833      12
Ni     1.75188702   -1.70637465   -0.01470756      13
Ni     0.02125261   -1.67572351   -1.79836799      14
Co     0.03392004   -1.80040279    1.85022515      15
Co     1.73417488    0.08278889   -1.77665163      16
Ni     1.69732919    0.05073175    1.74055134      17
Ni    -0.46275208    0.66416006    0.07834127      18
          18
Lattice="  24.8920   0.0000   0.0000   0.0000  24.8920   0.0000   0.0000   0.0000  24.8920 " ConfE="      -5933.9076" DelE="         -0.2337"
Ni    -3.49787356    0.01596430    0.01271054       1
Cr     0.03260210    3.60826530    0.04677991       2
Ni     3.60153768    0.02433574   -0.01515732       3
Co     0.07370772   -3.59597721    0.05077349       4
Cr     0.04735184    0.06923158   -3.60766546       5
Ni     0.02231390   -0.00183362    3.58443737       6
Co    -1.63997291    0.05932355   -1.73748529       7
Cr    -1.69334752   -0.03581388    1.77507617       8
Cr     0.06093193    1.74145225   -1.82699332       9
Cr    -0.03537375    1.75278507    1.79293273      10
Ni    -1.68930374   -1.74860472    0.01743841      11
Ni     1.73587230    1.76640740    0.00650319      12
Ni     1.75781108   -1.71135315   -0.01406556      13
Ni     0.04889300   -1.71144723   -1.79276217      14
Co     0.04416853   -1.79724675    1.83972693      15
Co     1.73968257    0.07166501   -1.77683841      16
Ni     1.74469055    0.01912988    1.76110584      17
Ni    -1.68539796    1.76039528    0.00023421      18
