          18
Lattice="  24.8920   0.0000   0.0000   0.0000  24.8920   0.0000   0.0000   0.0000  24.8920 " ConfE="      -5936.0262" DelE="          0.0000"
Ni    -0.01633268   -3.47215570   -0.01898025       1
Co     0.02092998   -0.01958368    3.44220427       2
Co    -3.57254751    0.01588432   -0.10159619       3
Cr     3.54863417    0.00274952   -0.09803952       4
Cr     0.01101253    0.07563910   -3.71008959       5
Co     0.02735124    3.55540203   -0.03828378       6
Ni    -1.75859954   -0.00082631    1.68258415       7
Ni    -1.79076796   -1.74505401   -0.06657376       8
Co     1.74970939   -0.00786857    1.69199054       9
Ni    -0.02060844   -1.73344312   -1.86499021      10
Co     1.75252870   -1.75237258   -0.02965474      11
Ni     1.75937235    1.80019042   -0.07145214      12
Ni    -0.01837305    1.80805266   -1.83506573      13
Cr     0.00548126    1.80795680    1.73607225      14
Cr    -1.80745715    1.79856781   -0.08579854      15
Co    -1.77948511    0.03554700   -1.86947604      16
Cr     1.76231412    0.05147849   -1.84946958      17
Cr     0.00000000    0.00000000    0.00000000      18
          18
Lattice="  24.8920   0.0000   0.0000   0.0000  24.8920   0.0000   0.0000   0.0000  24.8920 " ConfE="      -5935.3584" DelE="          0.6678"
Ni    -0.02257933   -3.42927464   -0.04898247       1
Co     0.01818049   -0.01544771    3.37464273       2
Co    -3.64951496    0.02223418   -0.11312277       3
Cr     3.61590128    0.02609536   -0.13119387       4
Cr     0.01727173    0.07941449   -3.68435163       5
Co     0.03578826    3.56799979   -0.03403248       6
Ni    -1.90306937    0.03287111    1.69581474       7
Ni    -1.91125900   -1.75911620   -0.11658615       8
Co     1.89572404    0.03136622    1.71189703       9
Ni    -0.02863343   -1.70483748   -1.82373782      10
Co     1.88253827   -1.78437863   -0.10707938      11
Ni     1.71069348    1.72634718   -0.05655073      12
Ni    -0.02421236    1.77578107   -1.80422111      13
Cr    -0.02323043    1.75179574    1.69579606      14
Cr    -1.74948178    1.71401544   -0.06643313      15
Co    -1.78179403    0.03724518   -1.83392473      16
Cr     1.72533087    0.02987560   -1.78869619      17
Cr     0.03274424   -0.75312262    0.70452161      18
          18
Lattice="  24.8920   0.0000   0.0000   0.0000  24.8920   0.0000   0.0000   0.0000  24.8920 " ConfE="      -5936.0536" DelE="         -0.0274"
Ni    -0.01009390   -3.50551815   -0.06097564       1
Co     0.00516245    0.01598953    3.49406121       2
Co    -3.60719970    0.01265625   -0.10312024       3
Cr     3.56755199    0.01039458   -0.11543020       4
Cr     0.01067099    0.08360784   -3.70366043       5
Co     0.03573590    3.58406587   -0.04213945       6
Ni    -1.76340561    0.02398277    1.64800590       7
Ni    -1.78563504   -1.72244553   -0.08201353       8
Co     1.73948677    0.03054039    1.66112024       9
Ni    -0.02206101   -1.68666306   -1.82365109      10
Co     1.75903640   -1.72394076   -0.06702931      11
Ni     1.73008620    1.77383295   -0.08700321      12
Ni    -0.02354697    1.79218909   -1.81916156      13
Cr    -0.00527926    1.73058464    1.67719406      14
Cr    -1.78360796    1.77995369   -0.09495468      15
Co    -1.78871503    0.05449323   -1.86376377      16
Cr     1.74686596    0.05269145   -1.84247613      17
Cr     0.03611725   -1.67515387    1.69518388      18
