          18
Lattice="  24.8920   0.0000   0.0000   0.0000  24.8920   0.0000   0.0000   0.0000  24.8920 " ConfE="      -5938.6531" DelE="          0.0000"
Cr     0.01182788   -3.52002072    0.08010687       1
Cr     0.04690037   -0.07619064    3.59191803       2
Co    -0.00907768    3.64097868   -0.03328202       3
Cr    -0.00155853   -0.00715315   -3.54634947       4
Co    -3.55221293   -0.01725842   -0.02331186       5
Co     3.54455577   -0.01785222   -0.03802575       6
Ni    -1.72174457   -1.76340540    0.04277390       7
Cr     1.74862988   -1.77664713   -0.03547147       8
Ni    -1.72197925   -0.01896583    1.78973611       9
Ni     1.72658090   -0.01612697    1.73502220      10
Ni    -0.00747636   -1.76758850   -1.79790523      11
Ni    -0.00983892    1.79764153    1.73911775      12
Co    -0.01040052    1.77488678   -1.82000437      13
Co    -1.78509621    0.01613223   -1.79154889      14
Co     1.78674025   -0.00361741   -1.82870980      15
Co    -1.80203252    1.81326757   -0.05435423      16
Ni     1.75903086    1.80898220   -0.04601759      17
Ni     0.00000000    0.00000000    0.00000000      18
          18
Lattice="  24.8920   0.0000   0.0000   0.0000  24.8920   0.0000   0.0000   0.0000  24.8920 " ConfE="      -5938.0982" DelE="          0.5549"
Cr     0.00339712   -3.46340811    0.10882784       1
Cr     0.05643191   -0.10978727    3.51658102       2
Co    -0.00824285    3.63710691   -0.03019574       3
Cr     0.00751990   -0.02535523   -3.56085861       4
Co    -3.61323724   -0.00666950   -0.03691202       5
Co     3.58570143   -0.00177456   -0.05731919       6
Ni    -1.89864946   -1.79353697   -0.01543800       7
Cr     1.95399021   -1.78943315   -0.10456509       8
Ni    -1.84807549    0.00001720    1.78995637       9
Ni     1.90559331    0.03632469    1.78167062      10
Ni     0.00114638   -1.74204201   -1.72682095      11
Ni    -0.01046238    1.69658083    1.67532574      12
Co    -0.01626126    1.72332800   -1.78887837      13
Co    -1.77620722    0.00034694   -1.75799765      14
Co     1.78411009   -0.01088734   -1.80671555      15
Co    -1.80428972    1.77836982   -0.06165102      16
Ni     1.75868408    1.77979228   -0.05270192      17
Ni     0.05913265   -0.74386606    0.64755140      18
          18
Lattice="  24.8920   0.0000   0.0000   0.0000  24.8920   0.0000   0.0000   0.0000  24.8920 " ConfE="      -5938.8124" DelE="         -0.1594"
Cr     0.03008767   -3.58549598    0.02962717       1
Cr     0.04565682   -0.02613322    3.62690464       2
Co    -0.01009552    3.65803240   -0.03597611       3
Cr     0.01426353   -0.00867479   -3.55841446       4
Co    -3.58584015   -0.01476143   -0.03276378       5
Co     3.56990990   -0.01153482   -0.04131128       6
Ni    -1.72295079   -1.73760061    0.01190842       7
Cr     1.76569151   -1.74630715   -0.05863190       8
Ni    -1.73797701    0.00922447    1.74718250       9
Ni     1.72636279    0.01933043    1.69411937      10
Ni     0.00283183   -1.72981083   -1.74571313      11
Ni    -0.02250434    1.75154288    1.68774831      12
Co    -0.01715590    1.74923368   -1.80343700      13
Co    -1.76253726    0.02368259   -1.76355407      14
Co     1.77431429   -0.00144444   -1.80147797      15
Co    -1.79817855    1.80434966   -0.06929316      16
Ni     1.73066619    1.78982980   -0.06220576      17
Ni     0.02258565   -1.73340346    1.75389233      18
