          18
Lattice="  24.8920   0.0000   0.0000   0.0000  24.8920   0.0000   0.0000   0.0000  24.8920 " ConfE="      -5925.6466" DelE="          0.0000"
Ni    -0.00161980   -3.37915579   -0.07563679       1
Co     0.02999569    0.00740970   -3.56270587       2
Co     3.56572679    0.02563706   -0.01719404       3
Co     0.06681771    3.57944872   -0.01565753       4
Cr    -3.49981620    0.00385503   -0.06005737       5
Cr     0.01373522   -0.00194037    3.47438916       6
Ni     1.74922101   -0.01751976   -1.78231606       7
Ni     0.05402829    1.80369655   -1.75674864       8
Co    -1.71191436   -0.00865008   -1.80319465       9
Co     1.81542675   -1.68466508   -0.01148607      10
Co    -1.80199791   -1.67530523   -0.04725974      11
Ni    -0.00074238    1.80823184    1.72785658      12
Co     0.02631971   -1.69656240    1.79819710      13
Cr     1.86878456    1.74824713    0.01722758      14
Cr    -1.77457835    1.72844196   -0.08025300      15
Co     1.80492035    0.06379006    1.78276413      16
Co    -1.79782819    0.04995729    1.73212341      17
Co     0.00000000    0.00000000    0.00000000      18
          18
Lattice="  24.8920   0.0000   0.0000   0.0000  24.8920   0.0000   0.0000   0.0000  24.8920 " ConfE="      -5924.6536" DelE="          0.9930"
Ni     0.00106106   -3.41152966   -0.03610372       1
Co     0.04212868   -0.01994222   -3.50125619       2
Co     3.65233484    0.04698619   -0.01280614       3
Co     0.07304890    3.56731899   -0.02009286       4
Cr    -3.62362026    0.05610736   -0.03180591       5
Cr     0.01017040   -0.03076941    3.47573932       6
Ni     1.89479360    0.03729535   -1.77997313       7
Ni     0.05846004    1.70968787   -1.69710904       8
Co    -1.85773400    0.05919446   -1.79698810       9
Co     1.96140846   -1.67535022    0.05359043      10
Co    -1.98546153   -1.70923924    0.01952947      11
Ni    -0.00951160    1.74063547    1.68066018      12
Co     0.02172673   -1.63533171    1.69029639      13
Cr     1.86846838    1.70603638    0.03287802      14
Cr    -1.76724517    1.66021185   -0.07621197      15
Co     1.80425376    0.07116493    1.73131820      16
Co    -1.79680841    0.04984894    1.65923316      17
Co    -0.01800385   -1.13449218   -1.05409327      18
          18
Lattice="  24.8920   0.0000   0.0000   0.0000  24.8920   0.0000   0.0000   0.0000  24.8920 " ConfE="      -5925.3525" DelE="          0.2941"
Ni     0.00032510   -3.46019604   -0.02450320       1
Co     0.02946685    0.03851554   -3.57446071       2
Co     3.59206181    0.01806508   -0.01268584       3
Co     0.06693387    3.59149796   -0.00918021       4
Cr    -3.57244605    0.02160349   -0.03954065       5
Cr     0.00772370   -0.01027140    3.49049972       6
Ni     1.77271574    0.02255004   -1.74369019       7
Ni     0.05588077    1.74777374   -1.68137496       8
Co    -1.73570553    0.03755572   -1.75693066       9
Co     1.78473753   -1.66365985    0.00121449      10
Co    -1.77030351   -1.65318178   -0.03711341      11
Ni    -0.01794851    1.75510714    1.67897613      12
Co     0.02703264   -1.66149451    1.75145543      13
Cr     1.89050432    1.75857196    0.06154882      14
Cr    -1.79844823    1.71280080   -0.07368259      15
Co     1.79215238    0.07025243    1.74316208      16
Co    -1.79195051    0.05644414    1.67447446      17
Co     0.01298372   -1.70295624   -1.76692989      18
