          18
Lattice="  24.8920   0.0000   0.0000   0.0000  24.8920   0.0000   0.0000   0.0000  24.8920 " ConfE="      -5943.2761" DelE="          0.0000"
Ni     3.51232711    0.00320397   -0.02876440       1
Ni     0.00961549    0.02849228    3.48161627       2
Co    -3.57653713    0.01643212   -0.10993822       3
Co     0.03323960    0.00650109   -3.63661095       4
Cr     0.01012739   -3.45389713   -0.03111019       5
Ni    -0.00552603    3.57039982   -0.02832216       6
Cr     1.71188797   -1.79931793   -0.04398761       7
Ni     1.74093301    1.76171827    0.01368130       8
Co    -0.01082904   -1.70680068    1.69114471       9
Cr    -0.06343840    1.70306583    1.70692779      10
Ni     1.76731698    0.01462382   -1.82295918      11
Cr    -1.83265624    0.05100309    1.70293355      12
Cr    -1.74545939   -0.02927340   -1.85087406      13
Co    -0.01540913   -1.74705468   -1.85087769      14
Ni    -0.00423092    1.78853787   -1.81815795      15
Co    -1.78253437   -1.73898366   -0.05200042      16
Co    -1.80772170    1.77426173   -0.07680491      17
Co     0.00000000    0.00000000    0.00000000      18
          18
Lattice="  24.8920   0.0000   0.0000   0.0000  24.8920   0.0000   0.0000   0.0000  24.8920 " ConfE="      -5942.5757" DelE="          0.7005"
Ni     3.49939786    0.01421938   -0.03051560       1
Ni     0.00938151    0.01264241    3.45560863       2
Co    -3.58173285    0.01793505   -0.09183667       3
Co     0.03508130    0.00670290   -3.62574794       4
Cr     0.00966506   -3.56391273   -0.07033440       5
Ni    -0.00858883    3.62048677   -0.03908271       6
Cr     1.72341741   -1.90196281   -0.09470845       7
Ni     1.77639397    1.89720673   -0.05611155       8
Co    -0.13798676   -1.94192396    1.71493356       9
Cr    -0.07011545    1.81844822    1.70438441      10
Ni     1.71264862    0.01734205   -1.74804267      11
Cr    -1.68792306    0.03982745    1.61823932      12
Cr    -1.69290991   -0.03848501   -1.75707564      13
Co    -0.01624518   -1.74510789   -1.81478082      14
Ni    -0.00529880    1.78595415   -1.78583066      15
Co    -1.74432081   -1.71408531   -0.05868897      16
Co    -1.76002343    1.74872396   -0.05395098      17
Co     0.98371592   -0.05890047    1.00854482      18
          18
Lattice="  24.8920   0.0000   0.0000   0.0000  24.8920   0.0000   0.0000   0.0000  24.8920 " ConfE="      -5942.8086" DelE="          0.4675"
Ni     3.54205254    0.00913585   -0.05326877       1
Ni    -0.01060886    0.02553467    3.53647536       2
Co    -3.58995697    0.01689362   -0.10367023       3
Co     0.03205484    0.00291861   -3.64358192       4
Cr     0.01481638   -3.52018069   -0.05403367       5
Ni    -0.00860248    3.59662800   -0.03668270       6
Cr     1.68093459   -1.80226066   -0.06636849       7
Ni     1.72695674    1.79418677   -0.03639325       8
Co    -0.05307361   -1.70415460    1.64939969       9
Cr    -0.05866791    1.68839455    1.67079841      10
Ni     1.71979450    0.00973474   -1.77035622      11
Cr    -1.74197037    0.03558498    1.65482305      12
Cr    -1.72859109   -0.03820370   -1.80911373      13
Co    -0.02151856   -1.73517132   -1.82669291      14
Ni    -0.01723242    1.77216167   -1.80505890      15
Co    -1.74553409   -1.69956270   -0.07118476      16
Co    -1.76880463    1.73649674   -0.06509954      17
Co     1.62658697    0.01848294    1.63712600      18
