          18
Lattice="  24.8920   0.0000   0.0000   0.0000  24.8920   0.0000   0.0000   0.0000  24.8920 " ConfE="      -5930.9933" DelE="          0.0000"
Co    -0.01296672   -3.53624540    0.00595916       1
Cr     3.39637108   -0.24899769   -0.06053547       2
Ni    -3.57286669    0.03787041    0.03943036       3
Cr    -0.03225231    0.02212670    3.54346717       4
Co    -0.05040271    3.58735786    0.02407372       5
Cr    -0.00502478   -0.06675109   -3.53419737       6
Ni     0.00569608   -1.76500775    1.72952362       7
Cr     1.74804377   -0.03406463    1.74879743       8
Ni    -1.79737029    1.80381443    0.02980379       9
Ni    -1.81228366    0.02387770   -1.74278321      10
Cr     1.74969987   -0.03251150   -1.79709835      11
Co    -0.01400250   -1.77287907   -1.74991868      12
Cr    -1.82952660   -1.79731020   -0.02550787      13
Co    -1.75986243    0.03016754    1.81066676      14
Cr     1.70917179    1.84835348    0.00677524      15
Cr    -0.03161697    1.84970019    1.80474720      16
Cr    -0.04724907    1.80222201   -1.80081090      17
Ni     0.00000000    0.00000000    0.00000000      18
          18
Lattice="  24.8920   0.0000   0.0000   0.0000  24.8920   0.0000   0.0000   0.0000  24.8920 " ConfE="      -5930.4666" DelE="          0.5267"
Co    -0.01456739   -3.50517717    0.01615143       1
Cr     3.50666681   -0.15235778   -0.04987719       2
Ni    -3.55799049    0.02877708    0.03957431       3
Cr    -0.10203545    0.06483147    3.69700283       4
Co    -0.05579258    3.58430437    0.02053180       5
Cr    -0.03487632   -0.05104138   -3.60804010       6
Ni    -0.04560355   -1.76998650    1.89407423       7
Cr     1.66767986    0.02227562    1.98522228       8
Ni    -1.76860568    1.78041667    0.02709223       9
Ni    -1.76178600    0.01172074   -1.71906584      10
Cr     1.74573835    0.04919812   -1.96499140      11
Co    -0.08909070   -1.79413130   -1.89723223      12
Cr    -1.71600972   -1.74228772    0.00245764      13
Co    -1.68519010    0.04109992    1.79177911      14
Cr     1.58548886    1.64886940   -0.00742268      15
Cr    -0.03834437    1.79642722    1.79286245      16
Cr    -0.05046333    1.74403863   -1.77937043      17
Ni     1.16417791   -1.09568165   -0.01848811      18
          18
Lattice="  24.8920   0.0000   0.0000   0.0000  24.8920   0.0000   0.0000   0.0000  24.8920 " ConfE="      -5930.9313" DelE="          0.0620"
Co    -0.04067865   -3.58689475    0.00366674       1
Cr     3.56848917   -0.04402688   -0.03127421       2
Ni    -3.57666875    0.03993886    0.04042024       3
Cr    -0.04819951    0.03021150    3.59096921       4
Co    -0.06299938    3.61262683    0.02066357       5
Cr    -0.00685884   -0.06003711   -3.55154345       6
Ni    -0.04014909   -1.74070567    1.72978458       7
Cr     1.66364035    0.03075501    1.71907242       8
Ni    -1.77406126    1.79063909    0.02583912       9
Ni    -1.77706029    0.02876095   -1.70887853      10
Cr     1.72544912    0.00890975   -1.75159066      11
Co    -0.04499118   -1.74518484   -1.72811887      12
Cr    -1.79228613   -1.77086445   -0.03007610      13
Co    -1.71450204    0.04639108    1.78043543      14
Cr     1.61466012    1.77461910   -0.00966531      15
Cr    -0.05379451    1.82409645    1.78363485      16
Cr    -0.05337104    1.77439870   -1.77072233      17
Ni     1.71856149   -1.74398000    0.01797241      18
