          18
Lattice="  24.8920   0.0000   0.0000   0.0000  24.8920   0.0000   0.0000   0.0000  24.8920 " ConfE="      -5923.8925" DelE="          0.0000"
Cr     0.06742555   -3.27584890    0.01171673       1
Ni     3.45117148    0.14961201   -0.01849861       2
Ni    -0.07885867    3.69044103   -0.02860421       3
Cr    -3.63034399    0.16721904   -0.05165396       4
Ni    -0.04780250    0.16050882    3.52614349       5
Ni    -0.06437251    0.17080275   -3.60232679       6
Cr     0.00338787   -1.66080612    1.76958363       7
Ni    -0.01539285   -1.63713048   -1.79233407       8
Ni     1.72236812    0.12855601    1.73100808       9
Co     1.73017107    0.08071830   -1.77682448      10
Ni    -1.84503708   -1.62568908   -0.04397555      11
Ni     1.68286004    1.93490490   -0.05362132      12
Co    -1.87578464    1.87209617   -0.01524851      13
Ni    -1.82149275    0.13370772    1.73780736      14
Ni    -1.82938805    0.16285059   -1.81027267      15
Ni    -0.07563195    1.90200641    1.72051230      16
Ni    -0.05948545    1.87095655   -1.79408779      17
Cr     0.00000000    0.00000000    0.00000000      18
          18
Lattice="  24.8920   0.0000   0.0000   0.0000  24.8920   0.0000   0.0000   0.0000  24.8920 " ConfE="      -5923.3598" DelE="          0.5327"
Cr     0.03642213   -3.34178005   -0.01220905       1
Ni     3.39259547    0.13050561   -0.01153821       2
Ni    -0.07734972    3.70011031   -0.02566239       3
Cr    -3.60596356    0.14931794   -0.05783595       4
Ni    -0.03911882    0.16322781    3.55898713       5
Ni    -0.07766235    0.18051884   -3.63952047       6
Cr     0.00363731   -1.70439444    1.87741697       7
Ni    -0.06246738   -1.65349586   -1.90852763       8
Ni     1.77403686    0.20132986    1.87251425       9
Co     1.71610870    0.11598330   -1.86871116      10
Ni    -1.74931617   -1.60848386   -0.04551911      11
Ni     1.66256080    1.90094622   -0.04735121      12
Co    -1.87357401    1.86022102   -0.01107602      13
Ni    -1.73570926    0.10866821    1.69595087      14
Ni    -1.80348439    0.15958156   -1.80234931      15
Ni    -0.06183219    1.87770802    1.70810875      16
Ni    -0.06101547    1.85121688   -1.78135477      17
Cr     0.64901180   -0.54959035    0.02029173      18
          18
Lattice="  24.8920   0.0000   0.0000   0.0000  24.8920   0.0000   0.0000   0.0000  24.8920 " ConfE="      -5924.2834" DelE="         -0.3909"
Cr     0.00035164   -3.39904012   -0.00634425       1
Ni     3.48694195    0.20376182   -0.02521887       2
Ni    -0.08921504    3.71894304   -0.03004750       3
Cr    -3.62162751    0.16405235   -0.05243510       4
Ni    -0.05002087    0.17103550    3.53944070       5
Ni    -0.07477974    0.18408933   -3.61538982       6
Cr     0.00252145   -1.66415338    1.76936341       7
Ni    -0.03668813   -1.61087195   -1.77954689       8
Ni     1.67956165    0.17584273    1.71565248       9
Co     1.70356790    0.11492281   -1.77369602      10
Ni    -1.75813976   -1.58886236   -0.03075975      11
Ni     1.65899464    1.93229297   -0.06259397      12
Co    -1.90552026    1.89879385   -0.00774256      13
Ni    -1.78932568    0.14514367    1.71503930      14
Ni    -1.82643145    0.18624628   -1.79665739      15
Ni    -0.09877220    1.92141725    1.71444018      16
Ni    -0.07988076    1.89306092   -1.79497393      17
Cr     1.71360830   -1.56655088   -0.03517748      18
