          18
Lattice="  24.8920   0.0000   0.0000   0.0000  24.8920   0.0000   0.0000   0.0000  24.8920 " ConfE="      -5937.0348" DelE="          0.0000"
Cr     0.00229963   -3.51969820    0.07449323       1
Cr    -0.02483491   -0.00884195    3.56289252       2
Co    -0.02940486    3.65045900   -0.02702426       3
Cr    -0.00822536    0.00076043   -3.56931858       4
Co    -3.57249012    0.00715322   -0.00526002       5
Co     3.53159040   -0.00823070   -0.04653024       6
Ni    -1.73332274   -1.75588892    0.04765158       7
Cr     1.74599033   -1.78272005   -0.04769538       8
Ni    -1.75038405    0.01402403    1.78760458       9
Ni     1.72317206   -0.02275729    1.73390509      10
Ni    -0.01686179   -1.76776717   -1.80638397      11
Ni    -0.02588763    1.80523095    1.73152416      12
Co    -0.02286012    1.79291604   -1.82742493      13
Ni    -1.77205565    0.01611250   -1.76814261      14
Co     1.76788584    0.00246125   -1.83533210      15
Co    -1.82196575    1.83188528   -0.03839752      16
Ni     1.74491490    1.81363625   -0.05336856      17
Ni     0.00000000    0.00000000    0.00000000      18
          18
Lattice="  24.8920   0.0000   0.0000   0.0000  24.8920   0.0000   0.0000   0.0000  24.8920 " ConfE="      -5936.4761" DelE="          0.5587"
Cr    -0.00219083   -3.46536092    0.10298408       1
Cr    -0.01188493   -0.03929269    3.50297276       2
Co    -0.03243064    3.65361083   -0.02464856       3
Cr    -0.00501121   -0.01317833   -3.58116568       4
Co    -3.61728167    0.01322499   -0.01323092       5
Co     3.56025413    0.01435686   -0.06723092       6
Ni    -1.89492103   -1.78972481   -0.00099325       7
Cr     1.94412327   -1.78562203   -0.10466321       8
Ni    -1.85104417    0.03096538    1.79839618       9
Ni     1.89213675    0.03637180    1.78540786      10
Ni    -0.00584108   -1.74891467   -1.73985210      11
Ni    -0.02203477    1.72194575    1.67757237      12
Co    -0.03029234    1.75847278   -1.80560714      13
Ni    -1.75726852   -0.00107243   -1.73483610      14
Co     1.75227551    0.00033062   -1.81095957      15
Co    -1.82542060    1.80807134   -0.04313978      16
Ni     1.73400951    1.78812012   -0.05840279      17
Ni     0.06166301   -0.69529697    0.60806908      18
          18
Lattice="  24.8920   0.0000   0.0000   0.0000  24.8920   0.0000   0.0000   0.0000  24.8920 " ConfE="      -5937.2247" DelE="         -0.1898"
Cr     0.02094673   -3.59425371    0.02564846       1
Cr    -0.01178826    0.02121122    3.59420444       2
Co    -0.03006900    3.66983094   -0.02803657       3
Cr     0.00073001   -0.00015433   -3.57365095       4
Co    -3.60011984    0.00788969   -0.01325694       5
Co     3.55629801    0.00034165   -0.05097234       6
Ni    -1.73732827   -1.74511095    0.01991008       7
Cr     1.76010016   -1.75363408   -0.06808964       8
Ni    -1.75688960    0.03165235    1.75423376       9
Ni     1.72102447    0.01551434    1.68987112      10
Ni    -0.00366996   -1.74466928   -1.75465838      11
Ni    -0.03716327    1.76113296    1.68912590      12
Co    -0.02867955    1.78032848   -1.81522054      13
Ni    -1.73583464    0.01392691   -1.72529008      14
Co     1.74942525    0.00385767   -1.80233845      15
Co    -1.82245655    1.83405580   -0.04876670      16
Ni     1.71509642    1.79683819   -0.06696034      17
Ni     0.01052133   -1.73534059    1.74383186      18
