          18
Lattice="  24.8920   0.0000   0.0000   0.0000  24.8920   0.0000   0.0000   0.0000  24.8920 " ConfE="      -5950.7409" DelE="          0.0000"
Cr    -3.47526180   -0.00369779   -0.03255256       1
Co    -0.00132935    0.01794558   -3.50849681       2
Cr     3.59924285   -0.07317947    0.01918939       3
Cr    -0.02918801   -0.04398238    3.58915054       4
Cr     0.03587597   -3.57455004    0.03560202       5
Ni     0.06082712    3.53265534    0.03772937       6
Ni    -1.72843913   -1.76543903   -0.00411955       7
Co    -1.77211629    1.72783615   -0.04262700       8
Ni     0.03575930   -1.77333889   -1.75618400       9
Co     0.01941166    1.77391469   -1.78116999      10
Co    -1.78052234    0.00463209    1.82486379      11
Ni     1.82386436    0.00269441   -1.75190783      12
Ni     1.78605200   -0.00568507    1.79607516      13
Ni     0.01673311   -1.78369253    1.79773308      14
Ni     0.00702018    1.74140312    1.81529096      15
Ni     1.80184516   -1.78351716    0.03338127      16
Ni     1.82048733    1.75913971    0.03142873      17
Ni     0.00000000    0.00000000    0.00000000      18
          18
Lattice="  24.8920   0.0000   0.0000   0.0000  24.8920   0.0000   0.0000   0.0000  24.8920 " ConfE="      -5950.1816" DelE="          0.5593"
Cr    -3.38890371   -0.03157883   -0.01506365       1
Co     0.01095610    0.02131619   -3.50672849       2
Cr     3.60234380   -0.07274226    0.01100466       3
Cr    -0.03306462   -0.05002215    3.61029061       4
Cr     0.06306139   -3.62042333    0.04575807       5
Ni     0.06161338    3.56377963    0.04169258       6
Ni    -1.73306805   -1.94227367    0.06160838       7
Co    -1.83910289    1.91323188    0.01628142       8
Ni     0.06382546   -1.88289631   -1.77707267       9
Co     0.04394529    1.89263048   -1.82463932      10
Co    -1.76456616   -0.00136810    1.77168690      11
Ni     1.76651720   -0.00448160   -1.73354958      12
Ni     1.75094199   -0.01501573    1.77191229      13
Ni     0.01251118   -1.78456662    1.78868955      14
Ni    -0.01203353    1.71184599    1.77128597      15
Ni     1.77076746   -1.77705751    0.02820407      16
Ni     1.76079877    1.72397386    0.01414060      17
Ni    -0.60695608    0.02004182   -0.54322818      18
          18
Lattice="  24.8920   0.0000   0.0000   0.0000  24.8920   0.0000   0.0000   0.0000  24.8920 " ConfE="      -5951.2689" DelE="         -0.5280"
Cr    -3.53335246   -0.02263490    0.07139140       1
Co     0.04132955    0.02643069   -3.55532534       2
Cr     3.60880802   -0.07689874    0.01873925       3
Cr    -0.02802079   -0.04614244    3.60473220       4
Cr     0.04737187   -3.60328260    0.05296067       5
Ni     0.06813249    3.54864118    0.04620270       6
Ni    -1.69813396   -1.77991206    0.04042762       7
Co    -1.74486031    1.75437736    0.01549766       8
Ni     0.06179312   -1.77457462   -1.72566926       9
Co     0.05259139    1.77555156   -1.75085225      10
Co    -1.76086526    0.00288183    1.78500947      11
Ni     1.80255708    0.00112173   -1.72616520      12
Ni     1.76239269   -0.00566247    1.77331900      13
Ni     0.02289962   -1.76420627    1.79120116      14
Ni     0.01115033    1.71828447    1.80107830      15
Ni     1.78564696   -1.76882458    0.04051633      16
Ni     1.80194495    1.73835493    0.03449464      17
Ni    -1.68794964   -0.00651995   -1.68841609      18
