          18
Lattice="  24.8920   0.0000   0.0000   0.0000  24.8920   0.0000   0.0000   0.0000  24.8920 " ConfE="      -5938.6582" DelE="          0.0000"
Ni    -0.00635909   -0.05502129    3.51560399       1
Ni     3.53455433    0.01361656    0.00480005       2
Ni     0.01784046    0.01828924   -3.56210370       3
Cr     0.03734400   -3.52537412    0.00800888       4
Co    -3.56107992    0.01029733   -0.02093510       5
Cr    -0.10530798    3.57670774   -0.03671247       6
Ni    -1.74111230   -0.05579724    1.77850355       7
Ni    -1.71865119   -1.77732810    0.03851926       8
Ni     1.76522121   -0.01096479    1.76532527       9
Ni     0.03603172    1.78349366   -1.76375615      10
Co     1.72855386   -1.81977718    0.04002627      11
Co     0.02405624    1.83778967    1.76045595      12
Co    -1.77274289    1.82948508    0.00616909      13
Co    -1.77273774   -0.02276780   -1.78658763      14
Co     1.79355978    1.84414964   -0.00892317      15
Co     0.02705809   -1.78744719   -1.82803951      16
Cr     1.75888728   -0.05920723   -1.77265055      17
Ni     0.00000000    0.00000000    0.00000000      18
          18
Lattice="  24.8920   0.0000   0.0000   0.0000  24.8920   0.0000   0.0000   0.0000  24.8920 " ConfE="      -5937.9115" DelE="          0.7467"
Ni    -0.00543132   -0.06038213    3.43619859       1
Ni     3.61508656    0.02531416   -0.01605983       2
Ni     0.02110086    0.00056681   -3.54595175       3
Cr    -0.00050188   -3.46813640    0.02168771       4
Co    -3.64727817    0.03513150   -0.04288017       5
Cr    -0.10222657    3.56598964   -0.02707651       6
Ni    -1.89826569    0.00306359    1.77462569       7
Ni    -1.91804118   -1.77863536   -0.02031104       8
Ni     1.94212171    0.05555410    1.78794916       9
Ni     0.02755116    1.69895772   -1.67863740      10
Co     1.98204306   -1.87677140   -0.03220940      11
Co     0.02334422    1.76895601    1.70734591      12
Co    -1.78655845    1.79624663    0.01176238      13
Co    -1.77374699   -0.03553106   -1.76925982      14
Co     1.80992131    1.81875422   -0.00106393      15
Co     0.03540923   -1.76340298   -1.73508377      16
Cr     1.74078102   -0.08206352   -1.71402938      17
Ni     0.05304773   -0.93561093    0.86960146      18
          18
Lattice="  24.8920   0.0000   0.0000   0.0000  24.8920   0.0000   0.0000   0.0000  24.8920 " ConfE="      -5938.6307" DelE="          0.0275"
Ni    -0.01056449   -0.01484173    3.55079313       1
Ni     3.55981990    0.02308153   -0.00443471       2
Ni     0.01694939    0.02303179   -3.57084364       3
Cr     0.01465886   -3.58013167   -0.03033730       4
Co    -3.60032924    0.02933440   -0.03323020       5
Cr    -0.11246785    3.58998536   -0.03736623       6
Ni    -1.75094647   -0.00410648    1.72890630       7
Ni    -1.74358849   -1.74292183    0.00096836       8
Ni     1.75343669    0.01123960    1.72523240       9
Ni     0.03496109    1.73798649   -1.71322378      10
Co     1.75125883   -1.76844607   -0.03195963      11
Co     0.02500584    1.80628798    1.73267451      12
Co    -1.76451218    1.82747113    0.00492634      13
Co    -1.75688118   -0.01246091   -1.76692680      14
Co     1.78897733    1.83633012   -0.01173885      15
Co     0.02601447   -1.75151942   -1.78002699      16
Cr     1.72880206   -0.06211139   -1.74898852      17
Ni    -0.00829385   -1.75744402    1.73966124      18
