          18
Lattice="  24.8920   0.0000   0.0000   0.0000  24.8920   0.0000   0.0000   0.0000  24.8920 " ConfE="      -5937.1783" DelE="          0.0000"
Ni     0.01468050    3.52904944   -0.03129304       1
Ni     3.47246384    0.08664740    0.00200958       2
Ni    -0.03368975    0.00079990    3.52603651       3
Ni    -3.60149578   -0.00204053   -0.01462032       4
Co    -0.03399434   -3.50883035    0.00535981       5
Cr     0.02210767    0.02771449   -3.53812814       6
Ni    -0.03700098    1.77469756    1.75168437       7
Co    -0.01696513    1.79190877   -1.80025315       8
Co     1.69968484    0.05643654   -1.77506512       9
Co     1.75785383    0.04180360    1.74510027      10
Ni    -1.79802725    0.01513692   -1.76294316      11
Ni    -1.79413821    0.01220313    1.76778322      12
Co     1.71333744   -1.76968668    0.01359088      13
Cr     0.02387257   -1.75445338   -1.75258721      14
Co    -1.85064916    1.82014223   -0.00576967      15
Cr     0.04447200   -1.81425453    1.76779191      16
Co    -1.78394525   -1.75725097   -0.01660439      17
Ni     0.00000000    0.00000000    0.00000000      18
          18
Lattice="  24.8920   0.0000   0.0000   0.0000  24.8920   0.0000   0.0000   0.0000  24.8920 " ConfE="      -5936.3803" DelE="          0.7980"
Ni     0.02631210    3.47769690   -0.02863157       1
Ni     3.40804198    0.08580103    0.00277240       2
Ni    -0.04963423   -0.00979984    3.58563044       3
Ni    -3.59100671    0.00078084   -0.00979819       4
Co    -0.02557715   -3.53557409    0.02123314       5
Cr     0.02119362    0.00017749   -3.60169077       6
Ni    -0.08630956    1.80723438    1.89099553       7
Co    -0.09569039    1.83454630   -1.96996546       8
Co     1.72314866   -0.00892610   -1.98837387       9
Co     1.74387597   -0.04720425    1.91119466      10
Ni    -1.76321770    0.02212635   -1.75402103      11
Ni    -1.76700204    0.01714895    1.77278080      12
Co     1.65720344   -1.70342695   -0.00671899      13
Cr     0.04452268   -1.69000437   -1.68628817      14
Co    -1.80747194    1.80036478    0.00407012      15
Cr     0.04877207   -1.74216472    1.71348730      16
Co    -1.69580141   -1.70564419   -0.00528246      17
Ni     0.78340130    0.81011568   -0.04842265      18
          18
Lattice="  24.8920   0.0000   0.0000   0.0000  24.8920   0.0000   0.0000   0.0000  24.8920 " ConfE="      -5937.1027" DelE="          0.0756"
Ni    -0.03130256    3.59141585   -0.02450420       1
Ni     3.50595779    0.04544419    0.00984707       2
Ni    -0.03843168   -0.00361676    3.53126267       3
Ni    -3.61127602   -0.01138716   -0.01485233       4
Co    -0.03365243   -3.55790900    0.01812634       5
Cr     0.00619764    0.01929574   -3.57816598       6
Ni    -0.05415430    1.75448630    1.73073924       7
Co    -0.05707298    1.78675420   -1.80205204       8
Co     1.63267041    0.00082024   -1.76712333       9
Co     1.70016097   -0.01702927    1.73923919      10
Ni    -1.76037306    0.01143096   -1.73089192      11
Ni    -1.76028602    0.00624944    1.73739917      12
Co     1.64129588   -1.71472382    0.01117781      13
Cr     0.01623677   -1.73117935   -1.67653408      14
Co    -1.83289331    1.81750650   -0.00229356      15
Cr     0.04273696   -1.78955231    1.70993538      16
Co    -1.72189641   -1.73506500   -0.00937978      17
Ni     1.70247779    1.77466959   -0.03218647      18
