          18
Lattice="  24.8920   0.0000   0.0000   0.0000  24.8920   0.0000   0.0000   0.0000  24.8920 " ConfE="      -5925.7435" DelE="          0.0000"
Cr    -3.52036090    0.00555104   -0.04804300       1
Ni    -0.01662066   -3.48408026    0.03468853       2
Ni     3.60670698    0.03271756   -0.03875764       3
Co     0.04254997    3.55612103   -0.00472980       4
Ni     0.02478393    0.01006532   -3.56704414       5
Cr     0.02108892    0.07005728    3.46690113       6
Ni    -1.74367305    0.01564979   -1.77408550       7
Ni    -1.77910802    0.00410737    1.68080341       8
Co    -0.02981474   -1.77514042   -1.77524100       9
Cr    -0.00603695   -1.70851891    1.73179613      10
Co    -1.77740942    1.85138033   -0.03859708      11
Ni     1.81879457   -1.73940521   -0.03133067      12
Co     1.84920040    1.81125931   -0.01850752      13
Ni     0.05307507    1.76211383   -1.77914488      14
Co     0.05417884    1.79868871    1.74035593      15
Co     1.82142371    0.01170012   -1.82707359      16
Ni     1.82463580    0.03467607    1.71789662      17
Co     0.00000000    0.00000000    0.00000000      18
          18
Lattice="  24.8920   0.0000   0.0000   0.0000  24.8920   0.0000   0.0000   0.0000  24.8920 " ConfE="      -5925.0707" DelE="          0.6728"
Cr    -3.40930449   -0.01422693   -0.04231048       1
Ni    -0.01790425   -3.45982625    0.01837559       2
Ni     3.60338702    0.02091964   -0.04161515       3
Co     0.02865372    3.54441008   -0.00336222       4
Ni     0.04249739    0.01633273   -3.62288367       5
Cr     0.04252949    0.08085213    3.53600928       6
Ni    -1.76308942    0.03993797   -1.93931914       7
Ni    -1.80403521    0.05058913    1.88937971       8
Co     0.01815939   -1.81530280   -1.93112756       9
Cr     0.02323445   -1.75277579    1.85381470      10
Co    -1.75744058    1.75100793   -0.02558565      11
Ni     1.76457960   -1.71542145   -0.05477658      12
Co     1.83290661    1.78488130   -0.02092448      13
Ni     0.04916492    1.70260505   -1.74435832      14
Co     0.04376143    1.75529234    1.72212198      15
Co     1.81695246   -0.00315202   -1.84786385      16
Ni     1.76423131    0.01522120    1.68725586      17
Co    -0.63111235   -0.67508574    0.00766542      18
          18
Lattice="  24.8920   0.0000   0.0000   0.0000  24.8920   0.0000   0.0000   0.0000  24.8920 " ConfE="      -5925.9381" DelE="         -0.1946"
Cr    -3.54869998    0.01111447   -0.04108728       1
Ni     0.04870811   -3.53690279    0.03019033       2
Ni     3.61646334    0.03110223   -0.03825071       3
Co     0.03927006    3.56750015   -0.00199625       4
Ni     0.03295119    0.02341367   -3.58610376       5
Cr     0.03209775    0.08190237    3.50617157       6
Ni    -1.71731097    0.03401826   -1.77398770       7
Ni    -1.73180588    0.03959005    1.68752193       8
Co     0.01759716   -1.75001780   -1.79241426       9
Cr     0.01817213   -1.69694337    1.73963939      10
Co    -1.77784648    1.83052762   -0.03815409      11
Ni     1.77468319   -1.70657132   -0.03996562      12
Co     1.86433490    1.81772409   -0.01052190      13
Ni     0.06421467    1.72551488   -1.72536602      14
Co     0.06096964    1.77689011    1.70955009      15
Co     1.82912909    0.01943429   -1.83100596      16
Ni     1.78396227    0.03415508    1.68906751      17
Co    -1.69484973   -1.73362426   -0.01189725      18
