          18
Lattice="  24.8920   0.0000   0.0000   0.0000  24.8920   0.0000   0.0000   0.0000  24.8920 " ConfE="      -5948.1213" DelE="          0.0000"
Co     0.01900982   -0.00999493   -3.62094286       1
Co    -0.00344722   -3.58649502   -0.03480214       2
Cr     0.00235869    3.52717107   -0.02672745       3
Cr     0.02439066    0.07348456    3.51846762       4
Cr     3.52629526   -0.01956171   -0.11860946       5
Co    -3.50987601   -0.04959939   -0.04467040       6
Ni     1.73977676   -1.77699001   -0.07478083       7
Ni    -1.67534682   -0.07206584   -1.80181219       8
Ni     0.02666299    1.75699161   -1.80355064       9
Ni     0.05907746   -1.77486166    1.78003665      10
Co     1.80197965   -0.00117331   -1.82426653      11
Cr    -1.68734297   -1.74748006   -0.02842900      12
Ni     1.79675534    1.76510426   -0.02244439      13
Ni     1.80813185   -0.00958296    1.75042768      14
Co     0.02330422    1.77482146    1.75984148      15
Cr    -1.75278945   -0.01010011    1.72425610      16
Cr    -1.80426567    1.75740736   -0.02234726      17
Co     0.00000000    0.00000000    0.00000000      18
          18
Lattice="  24.8920   0.0000   0.0000   0.0000  24.8920   0.0000   0.0000   0.0000  24.8920 " ConfE="      -5947.3777" DelE="          0.7436"
Co     0.00850827   -0.04120649   -3.56170885       1
Co    -0.00781653   -3.52309660   -0.06039963       2
Cr     0.01007980    3.54439316   -0.03833776       3
Cr     0.02918994    0.06399408    3.53016283       4
Cr     3.59771015    0.00181739   -0.09011494       5
Co    -3.56757955   -0.01621850   -0.03156828       6
Ni     1.91688312   -1.82376407   -0.00353122       7
Ni    -1.89466070    0.02733233   -1.87582131       8
Ni     0.00563287    1.68203114   -1.76332396       9
Ni     0.04167727   -1.74448866    1.71036589      10
Co     1.88940566    0.00950610   -1.82956940      11
Cr    -1.89384700   -1.77857825   -0.01342930      12
Ni     1.77156019    1.71905027   -0.03055180      13
Ni     1.78660208   -0.02560444    1.71797507      14
Co    -0.00163327    1.71382370    1.70302969      15
Cr    -1.71593306   -0.00534610    1.65968156      16
Cr    -1.79573995    1.74085336   -0.02795852      17
Co    -0.05833478   -0.84586924   -0.75982260      18
          18
Lattice="  24.8920   0.0000   0.0000   0.0000  24.8920   0.0000   0.0000   0.0000  24.8920 " ConfE="      -5947.9248" DelE="          0.1965"
Co     0.00541821    0.00630164   -3.63386652       1
Co     0.01069119   -3.61449077   -0.02325642       2
Cr     0.00890180    3.55512803   -0.02110328       3
Cr     0.02675130    0.08575567    3.55471900       4
Cr     3.57761036    0.00137644   -0.09708311       5
Co    -3.53658898   -0.04168641   -0.03591332       6
Ni     1.76874157   -1.74733354   -0.04121200       7
Ni    -1.70605213   -0.00738128   -1.77440201       8
Ni     0.02335724    1.72143845   -1.76249243       9
Ni     0.04926947   -1.73532093    1.73518390      10
Co     1.81738835    0.01354638   -1.81570299      11
Cr    -1.65774724   -1.69066207   -0.03277921      12
Ni     1.77093888    1.72797610   -0.01964633      13
Ni     1.78571518   -0.00911603    1.73881917      14
Co    -0.00342381    1.72900461    1.72057375      15
Cr    -1.73143284    0.00686186    1.70275701      16
Cr    -1.79120820    1.74840671   -0.00602345      17
Co     0.01699688   -1.75435896   -1.76017399      18
