          18
Lattice="  24.8920   0.0000   0.0000   0.0000  24.8920   0.0000   0.0000   0.0000  24.8920 " ConfE="      -5946.8201" DelE="          0.0000"
Ni     0.00977552    3.38350805    0.06255135       1
Cr    -3.43619710    0.13195796    0.06607005       2
Co    -0.04476761   -3.66131849    0.03395359       3
Ni     3.60133954   -0.13277707    0.02365678       4
Co     0.06532210   -0.08714451   -3.52965642       5
Cr     0.05078596   -0.04623835    3.61474259       6
Co     0.06192833    1.68761213   -1.72368198       7
Cr     0.05132187    1.68634183    1.85050693       8
Ni    -1.73389933   -0.02636447   -1.71723957       9
Ni    -1.69447154   -0.03356979    1.80384787      10
Cr     1.84573273    1.67097155   -0.00819601      11
Co    -1.75439580   -1.87281274    0.04923424      12
Ni     1.79199023   -1.87890925    0.03247719      13
Co     1.81325067   -0.09536459   -1.74753681      14
Ni     1.80641360   -0.09849545    1.80473113      15
Ni     0.02679892   -1.84939866   -1.71238156      16
Cr     0.03682327   -1.88781009    1.79540896      17
Cr     0.00000000    0.00000000    0.00000000      18
          18
Lattice="  24.8920   0.0000   0.0000   0.0000  24.8920   0.0000   0.0000   0.0000  24.8920 " ConfE="      -5946.1441" DelE="          0.6760"
Ni     0.02277040    3.36457919    0.06076465       1
Cr    -3.43242202    0.12602257    0.07787510       2
Co    -0.05612581   -3.65592011    0.03631294       3
Ni     3.60170462   -0.13167494    0.03154021       4
Co     0.08781374   -0.09675452   -3.58767634       5
Cr     0.07963126   -0.07642972    3.69736360       6
Co     0.07597632    1.70360318   -1.83023330       7
Cr     0.05469808    1.69431222    1.96944722       8
Ni    -1.73724548   -0.07260780   -1.86459254       9
Ni    -1.72811494   -0.08443419    1.98149857      10
Cr     1.80450931    1.63731408   -0.02385389      11
Co    -1.71583426   -1.75774290    0.07325966      12
Ni     1.75793085   -1.84668824    0.04111649      13
Co     1.76835295   -0.05096109   -1.69783473      14
Ni     1.75148002   -0.08631169    1.78673467      15
Ni     0.02385801   -1.79850000   -1.68450560      16
Cr     0.01069317   -1.82087182    1.77339039      17
Cr    -0.88526117    0.86700465    0.04678810      18
          18
Lattice="  24.8920   0.0000   0.0000   0.0000  24.8920   0.0000   0.0000   0.0000  24.8920 " ConfE="      -5946.8965" DelE="         -0.0764"
Ni     0.05437349    3.48752774    0.05106751       1
Cr    -3.52116927    0.01257936    0.08105271       2
Co    -0.04499707   -3.69855999    0.02667328       3
Ni     3.59577771   -0.13516436    0.02253902       4
Co     0.07234414   -0.09264294   -3.54910588       5
Cr     0.05908247   -0.05941089    3.63903653       6
Co     0.06563551    1.67597900   -1.69744677       7
Cr     0.07074772    1.68261694    1.82355414       8
Ni    -1.70371912   -0.06053556   -1.69671136       9
Ni    -1.65817801   -0.08899683    1.81216711      10
Cr     1.72368224    1.60719397   -0.02693841      11
Co    -1.72962462   -1.85742703    0.06471682      12
Ni     1.77774059   -1.87778578    0.03357257      13
Co     1.79852340   -0.09132216   -1.73197067      14
Ni     1.75821761   -0.11408205    1.78347835      15
Ni     0.03677915   -1.83701340   -1.68736641      16
Cr     0.03864045   -1.93365465    1.78975682      17
Cr    -1.66299718    1.64440699    0.07174141      18
