          18
Lattice="  24.8920   0.0000   0.0000   0.0000  24.8920   0.0000   0.0000   0.0000  24.8920 " ConfE="      -5924.1417" DelE="          0.0000"
Ni     0.01813695   -3.47929944    0.06793047       1
Ni    -0.00574410   -0.02358447   -3.45016993       2
Ni    -0.02216399    3.60419348    0.07635692       3
Ni    -0.04098900    0.07571226    3.62301996       4
Co    -3.58725841    0.08838406    0.05373609       5
Ni     3.51789863    0.08137856    0.04784732       6
Ni    -1.76389884   -1.67932005    0.02908705       7
Co     1.77152503   -1.73741369    0.02929355       8
Co    -1.80508321    0.06946947   -1.77046434       9
Cr     1.75611668   -0.05615786   -1.72154012      10
Ni    -0.00035266   -1.71834869    1.86530315      11
Ni    -0.00846579    1.82559110   -1.72511998      12
Ni    -0.02797388    1.82244015    1.83841631      13
Co    -1.84774669    0.04187065    1.85520356      14
Ni     1.74370339    0.07923036    1.81604570      15
Ni    -1.77365932    1.81901816    0.03861019      16
Ni     1.74503144    1.82154641    0.05062384      17
Ni     0.00000000    0.00000000    0.00000000      18
          18
Lattice="  24.8920   0.0000   0.0000   0.0000  24.8920   0.0000   0.0000   0.0000  24.8920 " ConfE="      -5923.7094" DelE="          0.4324"
Ni     0.01133845   -3.45014493    0.04151991       1
Ni    -0.00277240   -0.03905759   -3.40716246       2
Ni    -0.02507285    3.59619597    0.06891350       3
Ni    -0.04174235    0.06732182    3.61662082       4
Co    -3.63364201    0.10199688    0.05215766       5
Ni     3.56188235    0.08758923    0.06147937       6
Ni    -1.87531038   -1.68849979    0.06305409       7
Co     1.90420427   -1.80582067    0.08826563       8
Co    -1.95424798    0.11589086   -1.82566920       9
Cr     1.95102570    0.02444923   -1.78914895      10
Ni    -0.00749547   -1.67811245    1.79277988      11
Ni    -0.00890574    1.78130525   -1.70718918      12
Ni    -0.03206961    1.78711450    1.80586132      13
Co    -1.85990026    0.04113041    1.84456065      14
Ni     1.74025710    0.06702164    1.78478069      15
Ni    -1.77452604    1.78871670    0.02456919      16
Ni     1.73379655    1.77927717    0.03901209      17
Ni     0.03409362   -0.57584605   -0.69892737      18
          18
Lattice="  24.8920   0.0000   0.0000   0.0000  24.8920   0.0000   0.0000   0.0000  24.8920 " ConfE="      -5924.3232" DelE="         -0.1815"
Ni     0.01993377   -3.49291702    0.07718066       1
Ni    -0.00807868    0.03945711   -3.51331479       2
Ni    -0.02354238    3.60931070    0.08112542       3
Ni    -0.04191512    0.07791760    3.64043413       4
Co    -3.61314180    0.10160963    0.06072088       5
Ni     3.53576789    0.09120277    0.05796775       6
Ni    -1.74924573   -1.62581869    0.05917313       7
Co     1.76254098   -1.69961502    0.05413987       8
Co    -1.81090838    0.10273425   -1.75851604       9
Cr     1.77661307    0.01247203   -1.69673450      10
Ni    -0.00544280   -1.69442214    1.84054792      11
Ni    -0.00929883    1.78451162   -1.69726676      12
Ni    -0.03332555    1.80712120    1.83162623      13
Co    -1.85341474    0.05139813    1.87019428      14
Ni     1.71559125    0.08033029    1.79642026      15
Ni    -1.76111267    1.79666210    0.04811033      16
Ni     1.72207672    1.79145011    0.05507225      17
Ni    -0.01291487   -1.63919219   -1.69669023      18
