          18
Lattice="  24.8920   0.0000   0.0000   0.0000  24.8920   0.0000   0.0000   0.0000  24.8920 " ConfE="      -5938.0842" DelE="          0.0000"
Ni     0.02379707    0.00571703    3.50905985       1
Ni     0.00392737    3.45852077    0.00611560       2
Ni    -0.00653521   -0.00968089   -3.60905311       3
Cr     0.05231288   -3.55267286   -0.01760533       4
Ni    -3.53308572   -0.02629379   -0.03855253       5
Ni     3.54655718   -0.01863287   -0.02200999       6
Co    -1.76555041    0.05146440    1.74311121       7
Ni     1.79070800   -0.00104084    1.75629874       8
Cr    -1.75258818    1.74020843    0.08727798       9
Ni     1.74530501    1.73922473   -0.03205579      10
Ni     0.02226776   -1.79838710    1.76388046      11
Ni    -0.00878958    1.71724049   -1.82017706      12
Ni     0.01260884   -1.80117796   -1.81165669      13
Co    -1.75153962   -1.80955782   -0.04439429      14
Cr     1.78663940   -1.76911549   -0.03305736      15
Ni    -1.77791751   -0.00221160   -1.80293910      16
Co     1.79552230   -0.06733117   -1.81387347      17
Ni     0.00000000    0.00000000    0.00000000      18
          18
Lattice="  24.8920   0.0000   0.0000   0.0000  24.8920   0.0000   0.0000   0.0000  24.8920 " ConfE="      -5937.4701" DelE="          0.6141"
Ni     0.02599041    0.02185929    3.45915374       1
Ni     0.01789813    3.41024894    0.03111544       2
Ni    -0.00548085   -0.00641125   -3.59364359       3
Cr     0.04923860   -3.56283811   -0.00349882       4
Ni    -3.58105947   -0.04917874   -0.04891161       5
Ni     3.60779761   -0.01897274   -0.02717468       6
Co    -1.94219163   -0.03923565    1.80220362       7
Ni     1.92602070   -0.02834661    1.78592779       8
Cr    -1.94576668    1.78699203   -0.00206726       9
Ni     1.90882059    1.77349834   -0.07977999      10
Ni     0.02689852   -1.72404501    1.70803623      11
Ni    -0.00697712    1.66195663   -1.72590092      12
Ni     0.00633967   -1.77195981   -1.76811632      13
Co    -1.73978230   -1.76797842   -0.03552228      14
Cr     1.76153645   -1.70549068   -0.04738655      15
Ni    -1.78826236   -0.00673644   -1.78211881      16
Co     1.79208039   -0.07166759   -1.75964107      17
Ni    -0.03553719    0.78867585    0.77049332      18
          18
Lattice="  24.8920   0.0000   0.0000   0.0000  24.8920   0.0000   0.0000   0.0000  24.8920 " ConfE="      -5938.0034" DelE="          0.0807"
Ni     0.02207668   -0.03014245    3.54083882       1
Ni     0.00271560    3.50811355   -0.02451613       2
Ni    -0.00474767   -0.01725373   -3.61929811       3
Cr     0.04774427   -3.56859812   -0.01312059       4
Ni    -3.55357340   -0.03672325   -0.05404570       5
Ni     3.56300816   -0.02055338   -0.02085059       6
Co    -1.78706547    0.01567330    1.70486772       7
Ni     1.78935856   -0.02963211    1.73356866       8
Cr    -1.76906426    1.70962313   -0.00140715       9
Ni     1.73472063    1.70790721   -0.05560198      10
Ni     0.02182533   -1.76212191    1.72291273      11
Ni    -0.01099903    1.67352912   -1.77289501      12
Ni     0.01154547   -1.79965615   -1.79737710      13
Co    -1.72012247   -1.77974420   -0.04959240      14
Cr     1.75588285   -1.74862955   -0.05587415      15
Ni    -1.76215330   -0.01910919   -1.79254423      16
Co     1.78180201   -0.09284855   -1.77823182      17
Ni    -0.01681225    1.70365000    1.70773856      18
