          18
Lattice="  24.8920   0.0000   0.0000   0.0000  24.8920   0.0000   0.0000   0.0000  24.8920 " ConfE="      -5948.0713" DelE="          0.0000"
Cr     0.00829193    0.02486457   -3.50393918       1
Co    -0.02766809    3.51606367    0.06142080       2
Co    -0.00096548   -0.06059378    3.59420034       3
Co     0.00026469   -3.57293294    0.05959365       4
Ni    -3.55700863   -0.01453007    0.05765678       5
Co     3.52608378   -0.00025234    0.08429786       6
Ni    -1.78368553   -0.00497995   -1.73698361       7
Cr     1.75860034    0.01952623   -1.72506357       8
Cr    -1.68866643    1.75474036    0.03330062       9
Co     1.71424236    1.74706861    0.01508525      10
Ni    -0.02326016   -1.81054873   -1.75854696      11
Cr     0.07991497    1.70217941    1.84189734      12
Cr    -0.01181478   -1.76798979    1.84024975      13
Cr    -1.74613381   -1.78927472    0.07996737      14
Cr     1.74452706   -1.78789320    0.04253022      15
Co    -1.79271612    0.01136857    1.81476937      16
Co     1.74717469   -0.03399589    1.82452979      17
Co     0.00000000    0.00000000    0.00000000      18
          18
Lattice="  24.8920   0.0000   0.0000   0.0000  24.8920   0.0000   0.0000   0.0000  24.8920 " ConfE="      -5947.3846" DelE="          0.6867"
Cr    -0.02126582    0.04531316   -3.48490684       1
Co    -0.01569841    3.45453823    0.04380654       2
Co     0.00586074   -0.05540331    3.59164513       3
Co    -0.00894295   -3.55943617    0.05456849       4
Ni    -3.62310528   -0.02900692    0.06413833       5
Co     3.58014311   -0.02521678    0.09903271       6
Ni    -1.94996741   -0.05335175   -1.78519234       7
Cr     1.89863252   -0.04872283   -1.73346536       8
Cr    -1.82659812    1.71826108    0.07088506       9
Co     1.90763268    1.79508510    0.09718849      10
Ni    -0.04047818   -1.73725353   -1.74258681      11
Cr     0.08214720    1.58312540    1.69596426      12
Cr    -0.01835435   -1.68189628    1.80689425      13
Cr    -1.65859086   -1.64285603    0.08010683      14
Cr     1.67372194   -1.72790412    0.03534683      15
Co    -1.80191524    0.01137689    1.79764543      16
Co     1.74535425   -0.04415589    1.78785321      17
Co     0.02514007    0.85895449   -0.89056146      18
          18
Lattice="  24.8920   0.0000   0.0000   0.0000  24.8920   0.0000   0.0000   0.0000  24.8920 " ConfE="      -5947.9302" DelE="          0.1412"
Cr    -0.00064278   -0.00068341   -3.57238808       1
Co    -0.01907536    3.55360883    0.08746421       2
Co     0.00091693   -0.06475011    3.61315486       3
Co    -0.00662285   -3.57837360    0.05717033       4
Ni    -3.57930009   -0.02565179    0.06107861       5
Co     3.53607208   -0.01265151    0.09608013       6
Ni    -1.79048918   -0.02764241   -1.73991232       7
Cr     1.76470205   -0.00632511   -1.70411298       8
Cr    -1.63697417    1.63007514    0.05976705       9
Co     1.70080949    1.69931369    0.05671504      10
Ni    -0.02216398   -1.75485165   -1.74561245      11
Cr     0.08759369    1.64169143    1.77149989      12
Cr    -0.00489813   -1.73724186    1.84641692      13
Cr    -1.62915739   -1.66314142    0.10539286      14
Cr     1.65574129   -1.73863702    0.04706960      15
Co    -1.77807844    0.00697424    1.80911852      16
Co     1.70926868   -0.05947188    1.79398954      17
Co     0.00869654    1.71874418   -1.70341618      18
