          18
Lattice="  24.8920   0.0000   0.0000   0.0000  24.8920   0.0000   0.0000   0.0000  24.8920 " ConfE="      -5943.2332" DelE="          0.0000"
Ni    -0.00147897    0.03362253   -3.47827413       1
Cr    -0.07655281   -3.47912621   -0.00286200       2
Cr     3.50967147   -0.00402500    0.07404382       3
Cr    -3.57316458   -0.02807230    0.03340207       4
Co    -0.01161321    3.61155707    0.05465757       5
Co    -0.02947158    0.03472408    3.61732155       6
Ni     1.71169319   -1.74964270    0.00824495       7
Ni    -1.77685170   -0.00269628   -1.75032578       8
Co    -1.74865540   -1.77288480   -0.00149938       9
Co     1.79450264    0.06091889   -1.72473279      10
Ni    -1.79058294    1.80367760    0.03300209      11
Ni    -1.77713716    0.02373419    1.79891734      12
Ni     1.77411195    1.79999727    0.03126465      13
Cr    -0.00981382   -1.78877661    1.85906014      14
Co    -0.00927605    1.88157812   -1.76920123      15
Co     1.74929395    0.02467877    1.82918018      16
Co    -0.00199633    1.82335084    1.83067921      17
Ni     0.00000000    0.00000000    0.00000000      18
          18
Lattice="  24.8920   0.0000   0.0000   0.0000  24.8920   0.0000   0.0000   0.0000  24.8920 " ConfE="      -5942.5583" DelE="          0.6749"
Ni    -0.00851066    0.01917995   -3.42691380       1
Cr    -0.06447564   -3.40118543   -0.01986313       2
Cr     3.57786704    0.01381201    0.06691222       3
Cr    -3.63788137    0.00150829    0.04144985       4
Co    -0.01517117    3.61262837    0.05122185       5
Co    -0.03532088    0.02547899    3.62609140       6
Ni     1.91191058   -1.77140754    0.07581762       7
Ni    -1.91188405    0.03099946   -1.77940357       8
Co    -1.99344292   -1.75234539    0.08260532       9
Co     1.90977007    0.08835759   -1.73398147      10
Ni    -1.80697707    1.78477435    0.02808134      11
Ni    -1.78399672    0.03048875    1.78874439      12
Ni     1.77630024    1.77287489    0.02786084      13
Cr    -0.01321387   -1.73853304    1.78077456      14
Co    -0.01598545    1.82300136   -1.72656932      15
Co     1.72738935    0.01969891    1.79552775      16
Co    -0.00718331    1.77507865    1.78620092      17
Ni    -0.02050212   -0.73913746   -0.63829308      18
          18
Lattice="  24.8920   0.0000   0.0000   0.0000  24.8920   0.0000   0.0000   0.0000  24.8920 " ConfE="      -5943.2967" DelE="         -0.0635"
Ni    -0.00275761    0.05347565   -3.51355984       1
Cr    -0.05775792   -3.53506202    0.05593307       2
Cr     3.54868567    0.00979463    0.07741933       3
Cr    -3.60633179   -0.00880014    0.04456953       4
Co    -0.01067783    3.62483655    0.05317057       5
Co    -0.02877557    0.02845431    3.63614388       6
Ni     1.71436459   -1.70468227    0.04982480       7
Ni    -1.77999639    0.02960715   -1.72382576       8
Co    -1.77273537   -1.72917187    0.05442962       9
Co     1.77616479    0.07406901   -1.69577090      10
Ni    -1.76732740    1.78327320    0.03352115      11
Ni    -1.74284253    0.03113177    1.77887575      12
Ni     1.75742636    1.77885180    0.03571404      13
Cr    -0.01458158   -1.77847332    1.82094921      14
Co    -0.00468046    1.85132382   -1.75443842      15
Co     1.72014587    0.02871650    1.81088534      16
Co     0.00458587    1.80181801    1.81025753      17
Ni    -0.02105349   -1.71286331   -1.69073885      18
