          18
Lattice="  24.8920   0.0000   0.0000   0.0000  24.8920   0.0000   0.0000   0.0000  24.8920 " ConfE="      -5950.0141" DelE="          0.0000"
Co    -3.50102122    0.00863220   -0.05430425       1
Co     0.03483244    3.49572753    0.03535798       2
Ni     3.54993481   -0.01644432   -0.00499972       3
Ni     0.02422190   -3.59522534    0.00159745       4
Co    -0.00364572   -0.03578035   -3.54264390       5
Ni    -0.00543362   -0.05332788    3.55716000       6
Cr    -1.72984887    0.02197133   -1.80715135       7
Ni    -1.76043411   -0.02578735    1.76109468       8
Ni     0.00719652    1.74816258   -1.74337184       9
Co     0.02303773    1.74452101    1.78240206      10
Ni    -1.74330454   -1.81296265   -0.01034998      11
Cr     1.78151939    1.83901254    0.02907229      12
Cr     1.78442886   -1.86956961   -0.05256829      13
Co     0.04522840   -1.78393403   -1.77140738      14
Ni     0.00888141   -1.80403635    1.75866158      15
Ni     1.78949271   -0.00535403   -1.75125354      16
Cr     1.78744734   -0.04018334    1.75726802      17
Ni     0.00000000    0.00000000    0.00000000      18
          18
Lattice="  24.8920   0.0000   0.0000   0.0000  24.8920   0.0000   0.0000   0.0000  24.8920 " ConfE="      -5949.3851" DelE="          0.6290"
Co    -3.50008813    0.00252286   -0.05213487       1
Co     0.02833996    3.47417216    0.02171324       2
Ni     3.55410074    0.00248095   -0.01460992       3
Ni     0.02197954   -3.57300418    0.00700584       4
Co     0.01973407   -0.03310067   -3.60385763       5
Ni     0.00349125   -0.06297449    3.62130053       6
Cr    -1.67875095   -0.08994313   -1.99934768       7
Ni    -1.80795685   -0.08993115    1.92938031       8
Ni     0.08399865    1.78975753   -1.90964061       9
Co     0.03002232    1.75292792    1.91163328      10
Ni    -1.71119952   -1.72265856   -0.00911233      11
Cr     1.66572420    1.75938206    0.04331211      12
Cr     1.73457138   -1.77083542   -0.03489705      13
Co     0.03997551   -1.71201802   -1.73780923      14
Ni     0.00151072   -1.75804031    1.74690589      15
Ni     1.76734542    0.02179601   -1.74658469      16
Cr     1.68070017   -0.01366071    1.66471488      17
Ni    -1.06398282    0.96784508   -0.05111392      18
          18
Lattice="  24.8920   0.0000   0.0000   0.0000  24.8920   0.0000   0.0000   0.0000  24.8920 " ConfE="      -5949.8161" DelE="          0.1980"
Co    -3.55950892   -0.03182712   -0.03639086       1
Co     0.05378500    3.54317918    0.02074049       2
Ni     3.57877857   -0.01595370   -0.00716919       3
Ni     0.02467361   -3.60565242    0.00414895       4
Co     0.00118847   -0.03674640   -3.55952453       5
Ni     0.00376382   -0.05759459    3.57125971       6
Cr    -1.68263653   -0.03032038   -1.82590444       7
Ni    -1.74615912   -0.05269768    1.76710448       8
Ni     0.03892599    1.72911602   -1.74655902       9
Co     0.07532856    1.68766455    1.74670329      10
Ni    -1.72364042   -1.77179539   -0.01038678      11
Cr     1.74634414    1.78732341    0.04817696      12
Cr     1.76403613   -1.82661335   -0.04531741      13
Co     0.04332196   -1.73221156   -1.71797329      14
Ni     0.02035057   -1.77715389    1.72863062      15
Ni     1.77009233   -0.00174691   -1.71219328      16
Cr     1.73732718   -0.03916272    1.66805068      17
Ni    -1.69207820    1.69089238   -0.00412454      18
