          18
Lattice="  24.8920   0.0000   0.0000   0.0000  24.8920   0.0000   0.0000   0.0000  24.8920 " ConfE="      -5937.7965" DelE="          0.0000"
Ni    -3.52303698    0.01863317   -0.01863277       1
Ni    -0.02519213   -3.48564869   -0.00411488       2
Ni     3.52724667    0.03539797   -0.04931451       3
Co     0.03214104    3.61779130   -0.02042831       4
Co    -0.06063642    0.07068821   -3.62541798       5
Ni    -0.01767553    0.04488502    3.56532089       6
Ni    -1.76652563    0.03784702   -1.78361371       7
Ni    -1.77839136    0.01025347    1.72769941       8
Ni    -0.02691165   -1.73452649   -1.76023929       9
Ni    -0.01494854   -1.73103535    1.72869722      10
Cr    -1.70442361    1.88127262    0.04290730      11
Cr     1.76999332   -1.72114190    0.04558518      12
Ni     1.76841141    1.78087722   -0.03006120      13
Ni    -0.02095948    1.81228276   -1.80466140      14
Co    -0.00788941    1.79844556    1.73149545      15
Ni     1.74236048    0.03303533   -1.82530325      16
Cr     1.78271545    0.01605826    1.77051915      17
Co     0.00000000    0.00000000    0.00000000      18
          18
Lattice="  24.8920   0.0000   0.0000   0.0000  24.8920   0.0000   0.0000   0.0000  24.8920 " ConfE="      -5936.6822" DelE="          1.1143"
Ni    -3.47759273    0.01838104   -0.01349575       1
Ni    -0.04781812   -3.43326253   -0.01378464       2
Ni     3.50607669    0.01892002   -0.04804221       3
Co     0.00564906    3.59267224   -0.01944316       4
Co    -0.04523487    0.08177685   -3.71215330       5
Ni    -0.01456853    0.05523294    3.63761706       6
Ni    -1.80129456    0.08549014   -1.99887493       7
Ni    -1.81600056    0.04852232    1.91034033       8
Ni     0.00244127   -1.74008437   -1.94313689       9
Ni     0.00700386   -1.73568489    1.86701719      10
Cr    -1.66679613    1.72609204    0.03342472      11
Cr     1.60207762   -1.65346393    0.00837423      12
Ni     1.69183121    1.70015907   -0.02186794      13
Ni    -0.04315193    1.78017525   -1.80868981      14
Co    -0.04461114    1.74299508    1.71529721      15
Ni     1.69712259    0.02318206   -1.82879094      16
Cr     1.71225108   -0.03620223    1.74530675      17
Co    -1.06512781   -0.92573160   -0.04706170      18
          18
Lattice="  24.8920   0.0000   0.0000   0.0000  24.8920   0.0000   0.0000   0.0000  24.8920 " ConfE="      -5937.5635" DelE="          0.2330"
Ni    -3.56203178    0.03167294   -0.01557339       1
Ni     0.00252607   -3.52129289   -0.00420969       2
Ni     3.54466352    0.03220015   -0.04959650       3
Co     0.03099430    3.62507503   -0.02075194       4
Co    -0.05986294    0.07634968   -3.63474065       5
Ni    -0.01388551    0.05028066    3.58172765       6
Ni    -1.75238198    0.04813138   -1.76800878       7
Ni    -1.76643247    0.02787323    1.71847359       8
Ni    -0.00130563   -1.71413767   -1.75499978       9
Ni     0.01654179   -1.68212357    1.71310731      10
Cr    -1.69871323    1.84241675    0.05092076      11
Cr     1.74120194   -1.70833130    0.04953650      12
Ni     1.74332728    1.73916865   -0.01926873      13
Ni    -0.02823233    1.79727218   -1.78150884      14
Co    -0.01682280    1.75811755    1.68925733      15
Ni     1.72373173    0.02843264   -1.79202107      16
Cr     1.81576346    0.00780661    1.77500114      17
Co    -1.76565804   -1.77034596   -0.02251272      18
