          18
Lattice="  24.8920   0.0000   0.0000   0.0000  24.8920   0.0000   0.0000   0.0000  24.8920 " ConfE="      -5936.1275" DelE="          0.0000"
Cr     0.01812455    3.38879572    0.02269018       1
Co     3.46422322   -0.02364580   -0.05841494       2
Co    -0.02373435   -0.10499028   -3.57009277       3
Co    -0.08588795   -3.67780507   -0.01366077       4
Co    -0.05688739   -0.05013463    3.55226154       5
Co    -3.63879175   -0.09051245   -0.00286143       6
Ni    -0.03543226    1.66851021   -1.76072359       7
Cr     1.75839580   -0.05968651   -1.74974439       8
Ni     1.72025949   -1.88076014   -0.01811157       9
Co     1.69232373    0.03053394    1.70916807      10
Cr     0.00670543    1.64854389    1.71435491      11
Ni    -1.81727155   -0.08231644   -1.77562039      12
Ni    -0.04473042   -1.82414446    1.76096897      13
Ni    -1.80589853   -1.84148809   -0.00902815      14
Cr    -1.84060079    1.64415040    0.03448868      15
Co    -0.03699695   -1.84696325   -1.78004023      16
Co    -1.82981411   -0.04778756    1.72987265      17
Co     0.00000000    0.00000000    0.00000000      18
          18
Lattice="  24.8920   0.0000   0.0000   0.0000  24.8920   0.0000   0.0000   0.0000  24.8920 " ConfE="      -5935.7605" DelE="          0.3670"
Cr     0.04266752    3.30127913    0.00320639       1
Co     3.40158747   -0.00558524   -0.05187360       2
Co    -0.05376832   -0.11082782   -3.62441921       3
Co    -0.08037052   -3.67178937   -0.01232503       4
Co    -0.06050583   -0.05797095    3.59398843       5
Co    -3.63808736   -0.08536157   -0.00273714       6
Ni    -0.08534763    1.70226053   -1.91533008       7
Cr     1.72692260   -0.09934398   -1.93735202       8
Ni     1.70924581   -1.83117453   -0.02013525       9
Co     1.75632004   -0.03010131    1.90093790      10
Cr    -0.02699978    1.64639418    1.82136710      11
Ni    -1.79131295   -0.07101100   -1.77420878      12
Ni    -0.02401846   -1.78376284    1.74663791      13
Ni    -1.77835490   -1.81370917   -0.01076440      14
Cr    -1.77359740    1.61192931    0.02198799      15
Co    -0.02442022   -1.80453094   -1.76268049      16
Co    -1.77574542   -0.02859155    1.69777517      17
Co     0.64429680    0.53622198   -0.03201059      18
          18
Lattice="  24.8920   0.0000   0.0000   0.0000  24.8920   0.0000   0.0000   0.0000  24.8920 " ConfE="      -5936.5991" DelE="         -0.4716"
Cr    -0.02323295    3.46537176    0.02361604       1
Co     3.52282536   -0.07482814   -0.03452438       2
Co    -0.03675372   -0.11341349   -3.58941809       3
Co    -0.08463756   -3.68959666   -0.01387861       4
Co    -0.06401758   -0.05307061    3.57276158       5
Co    -3.65059432   -0.08837613   -0.00170038       6
Ni    -0.08093094    1.62914258   -1.74279646       7
Cr     1.72385561   -0.11337329   -1.78246427       8
Ni     1.69769897   -1.83540167   -0.02395840       9
Co     1.64193352   -0.01548940    1.70825697      10
Cr    -0.02375129    1.63091307    1.71897915      11
Ni    -1.80917374   -0.08987757   -1.74882253      12
Ni    -0.05225528   -1.81350362    1.74875114      13
Ni    -1.79080882   -1.83840588   -0.00828609      14
Cr    -1.78115042    1.62369609    0.05055956      15
Co    -0.04012575   -1.83643859   -1.77385396      16
Co    -1.78790203   -0.03168186    1.68961532      17
Co     1.67997621    1.62639584   -0.05574273      18
