          18
Lattice="  24.8920   0.0000   0.0000   0.0000  24.8920   0.0000   0.0000   0.0000  24.8920 " ConfE="      -5929.3181" DelE="          0.0000"
Ni    -0.02424179    0.01715353   -3.60140727       1
Cr     0.02032797   -3.42294619    0.03316966       2
Co    -0.07405623    0.01757668    3.46704582       3
Ni    -3.57019818    0.01198468   -0.03792033       4
Co    -0.07031131    3.59395851   -0.05671678       5
Cr     3.51309576   -0.01075535   -0.00398624       6
Co    -1.73351228   -1.73449742   -0.03335361       7
Co    -1.77920270    0.01503811    1.73806350       8
Ni    -0.01214325    1.78564471   -1.81153240       9
Co     1.75879496    0.01712359    1.69192225      10
Co     1.72100153   -1.78024072   -0.00908824      11
Ni     1.74114782    1.81282559   -0.01870226      12
Co    -1.78523036    0.01128351   -1.82967585      13
Cr    -0.02141801   -1.72195565   -1.83243478      14
Cr     1.74687478   -0.01208116   -1.77389304      15
Cr    -1.75173598    1.76329348   -0.00259655      16
Co    -0.05541253    1.82090727    1.74542251      17
Ni     0.00000000    0.00000000    0.00000000      18
          18
Lattice="  24.8920   0.0000   0.0000   0.0000  24.8920   0.0000   0.0000   0.0000  24.8920 " ConfE="      -5928.7066" DelE="          0.6115"
Ni    -0.02663254   -0.02012539   -3.56790694       1
Cr    -0.01109702   -3.41034451    0.05947601       2
Co    -0.05516895    0.01475829    3.40609295       3
Ni    -3.66182216    0.03438692   -0.05873106       4
Co    -0.06697456    3.61363647   -0.05880634       5
Cr     3.57494460    0.01440489   -0.00583183       6
Co    -1.93977181   -1.74209688   -0.09009818       7
Co    -1.93711914    0.12184208    1.70927374       8
Ni    -0.00531664    1.73595749   -1.75589164       9
Co     1.92496583    0.07419278    1.68738726      10
Co     1.95562495   -1.81819478   -0.06017184      11
Ni     1.74701679    1.79213377   -0.02016134      12
Co    -1.77483494    0.00346507   -1.77537517      13
Cr    -0.03578751   -1.68095703   -1.65032274      14
Cr     1.71495024   -0.04926393   -1.68456124      15
Cr    -1.71831403    1.70901213    0.01171043      16
Co    -0.05036367    1.75487752    1.66718140      17
Ni    -0.00035678   -0.94041426    0.88990764      18
          18
Lattice="  24.8920   0.0000   0.0000   0.0000  24.8920   0.0000   0.0000   0.0000  24.8920 " ConfE="      -5929.2335" DelE="          0.0846"
Ni    -0.02414399    0.00379420   -3.60547807       1
Cr     0.00036505   -3.52540142   -0.02300717       2
Co    -0.08155078    0.06705226    3.50863686       3
Ni    -3.59423028    0.01919071   -0.04260467       4
Co    -0.06618089    3.62428436   -0.06174847       5
Cr     3.56889961    0.01066414   -0.02804629       6
Co    -1.73180877   -1.69189620   -0.07893120       7
Co    -1.77453048    0.07556664    1.67509819       8
Ni    -0.01022820    1.75145395   -1.77092359       9
Co     1.73717857    0.04539813    1.65077780      10
Co     1.73096007   -1.71669368   -0.07915422      11
Ni     1.72779110    1.79071291   -0.03083381      12
Co    -1.75904171    0.01831375   -1.80100135      13
Cr    -0.03327363   -1.68682861   -1.74016022      14
Cr     1.70654156   -0.02468922   -1.73143153      15
Cr    -1.70225025    1.72717289    0.02930637      16
Co    -0.06076911    1.78988963    1.68801575      17
Ni    -0.01304898   -1.68573881    1.67460195      18
