          18
Lattice="  24.8920   0.0000   0.0000   0.0000  24.8920   0.0000   0.0000   0.0000  24.8920 " ConfE="      -5935.4107" DelE="          0.0000"
Co    -0.04830646   -3.41292573   -0.01042014       1
Cr     3.44295575   -0.05042278    0.08255906       2
Ni    -0.08070058    0.02489315   -3.52686742       3
Co    -3.62973421    0.07283812   -0.00432411       4
Co    -0.06790378    3.60707919    0.00586993       5
Co    -0.06166595    0.05480218    3.56234044       6
Cr     0.08754942   -1.73842508   -1.59754228       7
Co     1.76224273    0.05143305   -1.72934001       8
Co    -0.03541346   -1.69518960    1.77990048       9
Co     1.70952406    0.03020919    1.77791999      10
Ni    -1.81791962    0.00513512   -1.75209535      11
Ni    -0.06389296    1.80424788   -1.76531813      12
Ni    -1.86161312   -1.71458372    0.02260761      13
Co     1.73232321    1.84839509    0.01063146      14
Cr    -1.82891459    1.80902309   -0.00715470      15
Cr    -1.82603147    0.08282641    1.76099882      16
Cr    -0.01210038    1.74531696    1.74288657      17
Co     0.00000000    0.00000000    0.00000000      18
          18
Lattice="  24.8920   0.0000   0.0000   0.0000  24.8920   0.0000   0.0000   0.0000  24.8920 " ConfE="      -5934.8010" DelE="          0.6097"
Co    -0.02251216   -3.36484918   -0.00634800       1
Cr     3.41823887   -0.03676265    0.08537161       2
Ni    -0.09116361    0.04936604   -3.58449424       3
Co    -3.62141305    0.07675694   -0.00465014       4
Co    -0.05444932    3.59880499    0.00290750       5
Co    -0.07833598    0.06463516    3.64375943       6
Cr    -0.01542183   -1.73825318   -1.79636288       7
Co     1.79330403    0.16195319   -1.91816904       8
Co    -0.07437955   -1.69364071    1.90640815       9
Co     1.73265133    0.05407701    1.94580502      10
Ni    -1.78229122    0.02016504   -1.73919882      11
Ni    -0.06163998    1.78418489   -1.76149771      12
Ni    -1.78455289   -1.67277830    0.02265573      13
Co     1.67387235    1.73850818    0.03067893      14
Cr    -1.77200674    1.76624185    0.00849251      15
Cr    -1.75693368    0.05671575    1.74577886      16
Cr     0.01577606    1.66292548    1.69469963      17
Co     0.89631551   -0.82214299   -0.03711313      18
          18
Lattice="  24.8920   0.0000   0.0000   0.0000  24.8920   0.0000   0.0000   0.0000  24.8920 " ConfE="      -5935.4249" DelE="         -0.0142"
Co    -0.08161979   -3.45852641   -0.00984136       1
Cr     3.51172901   -0.01571215    0.05628844       2
Ni    -0.08951106    0.03786640   -3.54152605       3
Co    -3.64246189    0.08034537   -0.00423757       4
Co    -0.06544130    3.62301565    0.00665866       5
Co    -0.06786057    0.06086834    3.58969233       6
Cr     0.02558781   -1.68948513   -1.62008165       7
Co     1.73404271    0.07285687   -1.72497954       8
Co    -0.07183551   -1.65493628    1.77641758       9
Co     1.67071132    0.05908946    1.77232512      10
Ni    -1.79979862    0.02195764   -1.72057959      11
Ni    -0.06679869    1.78161901   -1.73127680      12
Ni    -1.81390212   -1.68072517    0.02617703      13
Co     1.69962631    1.80314934    0.01904917      14
Cr    -1.81305831    1.80047773    0.00776214      15
Cr    -1.80516415    0.09776236    1.74281874      16
Cr    -0.01096802    1.70626846    1.69147606      17
Co     1.65484770   -1.66058450    0.02184306      18
