          18
Lattice="  24.8920   0.0000   0.0000   0.0000  24.8920   0.0000   0.0000   0.0000  24.8920 " ConfE="      -5949.8095" DelE="          0.0000"
Ni    -0.02784033    3.54437215    0.03236057       1
Ni     0.00374617    0.03352212    3.60062191       2
Co    -0.01155954   -0.02360855   -3.54050441       3
Cr    -0.00940278   -3.52173641   -0.01776818       4
Co     3.49252018   -0.00738950   -0.02814203       5
Cr    -3.57650545   -0.01215602    0.01740921       6
Ni    -1.73169354   -0.04319212   -1.79035710       7
Ni    -1.75181726   -1.76858504   -0.01779931       8
Ni     1.73614347    0.00896848    1.78928286       9
Cr     1.69084621   -0.03613091   -1.74646323      10
Co     1.70124042   -1.80158029   -0.01451037      11
Ni    -1.77466503    1.76086896    0.01920602      12
Co    -0.04050277    1.81995279    1.84108482      13
Co    -0.04017035    1.81336840   -1.79901359      14
Co    -0.03030969   -1.81163511    1.82709089      15
Co     1.76447011    1.81543330    0.01034301      16
Cr    -1.75540992    0.02830557    1.80777021      17
Ni     0.00000000    0.00000000    0.00000000      18
          18
Lattice="  24.8920   0.0000   0.0000   0.0000  24.8920   0.0000   0.0000   0.0000  24.8920 " ConfE="      -5949.2466" DelE="          0.5629"
Ni    -0.02801746    3.53322441    0.02352436       1
Ni     0.01736369    0.01891901    3.60819837       2
Co    -0.02108009   -0.02689403   -3.49378508       3
Cr    -0.03449231   -3.45798185   -0.03848217       4
Co     3.52676589   -0.00030709   -0.00977744       5
Cr    -3.68497015    0.00589000    0.04827707       6
Ni    -1.91956882    0.02143246   -1.80202794       7
Ni    -1.93939271   -1.76799437    0.04707743       8
Ni     1.73524628   -0.00414406    1.76608390       9
Cr     1.90941446    0.05174091   -1.75303559      10
Co     1.88796790   -1.87382677    0.07363389      11
Ni    -1.77407657    1.72828766    0.01021923      12
Co    -0.03697164    1.75384355    1.79339174      13
Co    -0.03413742    1.74898465   -1.77290390      14
Co    -0.03874331   -1.78203953    1.75807622      15
Co     1.75206427    1.78150235    0.00266660      16
Cr    -1.67050992    0.04903593    1.76001781      17
Ni     0.02213989   -0.74453627   -0.72220550      18
          18
Lattice="  24.8920   0.0000   0.0000   0.0000  24.8920   0.0000   0.0000   0.0000  24.8920 " ConfE="      -5949.9885" DelE="         -0.1791"
Ni    -0.02815327    3.55538253    0.03429002       1
Ni     0.01235902    0.03151616    3.61938529       2
Co    -0.01537048    0.01321418   -3.58247791       3
Cr    -0.01681477   -3.56255498    0.01183927       4
Co     3.51735746    0.00487998   -0.02162857       5
Cr    -3.62766641    0.00304370    0.03631610       6
Ni    -1.76721020    0.01058857   -1.76195969       7
Ni    -1.77556941   -1.71964949    0.01989430       8
Ni     1.69667712    0.01456616    1.74762251       9
Cr     1.67737840    0.07551843   -1.66311978      10
Co     1.71333314   -1.76533535    0.02189572      11
Ni    -1.74017655    1.72595992    0.02933715      12
Co    -0.04822776    1.79290462    1.83024351      13
Co    -0.02619803    1.76397870   -1.77439886      14
Co    -0.04240880   -1.78696145    1.78862805      15
Co     1.73715258    1.78917688    0.01126951      16
Cr    -1.69584143    0.05331375    1.79008264      17
Ni    -0.01353199   -1.72058136   -1.73200068      18
