          18
Lattice="  24.8920   0.0000   0.0000   0.0000  24.8920   0.0000   0.0000   0.0000  24.8920 " ConfE="      -5947.5344" DelE="          0.0000"
Ni    -3.54031911   -0.07046512   -0.00628936       1
Cr    -0.11580656   -0.00137733   -3.46392447       2
Co    -0.02963812   -3.59049425   -0.00409427       3
Cr     0.00633707    3.46292726    0.03405104       4
Cr    -0.03035138    0.09918129    3.54199273       5
Co     3.57432369   -0.03894477    0.03839656       6
Ni    -0.02455400   -1.77529310   -1.75119768       7
Ni    -1.78023243   -1.76737184    0.00282053       8
Ni    -1.78835967    1.71603824    0.01603098       9
Co    -0.05416686    1.67442176   -1.78515479      10
Ni    -0.01244088   -1.77324099    1.79929983      11
Ni     1.77503645    1.73611724    0.03840687      12
Ni     1.77589176   -0.01594719    1.80117421      13
Cr     1.79651587   -0.02027015   -1.71267977      14
Co    -1.77696635   -0.05966211    1.84393887      15
Cr     1.75145693   -1.77644248    0.01870487      16
Co    -0.02253900    1.76375168    1.81623609      17
Co     0.00000000    0.00000000    0.00000000      18
          18
Lattice="  24.8920   0.0000   0.0000   0.0000  24.8920   0.0000   0.0000   0.0000  24.8920 " ConfE="      -5946.7806" DelE="          0.7538"
Ni    -3.48469303   -0.07635265   -0.02278448       1
Cr    -0.09543858   -0.03890930   -3.43272212       2
Co    -0.00987872   -3.67306749    0.01651876       3
Cr     0.05024393    3.57604737    0.06697120       4
Cr    -0.04236598    0.09660957    3.54867271       5
Co     3.55747097   -0.03588449    0.02343473       6
Ni     0.06319930   -2.00219858   -1.76825195       7
Ni    -1.79818773   -1.93669690    0.07127312       8
Ni    -1.79155230    1.85939875    0.05852101       9
Co     0.00099328    1.91078868   -1.79964375      10
Ni    -0.00869191   -1.76919633    1.75586154      11
Ni     1.70786063    1.71996703    0.02916032      12
Ni     1.72419529   -0.01382433    1.75488094      13
Cr     1.67779860   -0.03004338   -1.65228903      14
Co    -1.72465304   -0.04060910    1.74075020      15
Cr     1.72969977   -1.76977963    0.02217541      16
Co    -0.02773024    1.77563515    1.81086267      17
Co    -0.86081092   -0.03711777   -0.96752186      18
          18
Lattice="  24.8920   0.0000   0.0000   0.0000  24.8920   0.0000   0.0000   0.0000  24.8920 " ConfE="      -5947.6384" DelE="         -0.1040"
Ni    -3.56817909   -0.06666249    0.02121713       1
Cr    -0.08380252   -0.02190958   -3.53529143       2
Co    -0.02236814   -3.61037037    0.00384575       3
Cr     0.02164282    3.50721250    0.05785306       4
Cr    -0.02771651    0.10347930    3.58915511       5
Co     3.58154625   -0.03631907    0.03634096       6
Ni     0.01094087   -1.78528457   -1.71690818       7
Ni    -1.75424924   -1.77234656    0.04318320       8
Ni    -1.75060840    1.70804694    0.04262198       9
Co    -0.00765605    1.67943418   -1.74232111      10
Ni    -0.00294533   -1.75055671    1.79112332      11
Ni     1.73435282    1.70474838    0.04503491      12
Ni     1.74933602   -0.01994414    1.78205140      13
Cr     1.73403212   -0.02157481   -1.68818275      14
Co    -1.75904405   -0.05671777    1.83440167      15
Cr     1.75264377   -1.76170169    0.02682937      16
Co    -0.02091513    1.74880375    1.82357108      17
Co    -1.76125357   -0.04201493   -1.76669562      18
