          18
Lattice="  24.8920   0.0000   0.0000   0.0000  24.8920   0.0000   0.0000   0.0000  24.8920 " ConfE="      -5945.0378" DelE="          0.0000"
Co     3.51966284   -0.03276716   -0.03016526       1
Ni     0.04122837   -3.49932167   -0.00922313       2
Cr    -3.47277163    0.01423239   -0.03400057       3
Co    -0.00836396    3.58701820   -0.05745921       4
Co    -0.00752086    0.02861092   -3.58648823       5
Co     0.00980716    0.00117829    3.51846449       6
Ni     1.75984778   -0.05264543   -1.76806179       7
Cr     1.78937895   -0.00606006    1.72766706       8
Ni     0.03754266   -1.76411922   -1.76175124       9
Cr     0.06222296   -1.72388285    1.73811919      10
Ni     1.77300552    1.80050714   -0.05551676      11
Co    -1.77833762   -1.75454599    0.01961434      12
Co    -1.76763882    1.78332233   -0.04794110      13
Co    -0.01051818    1.78863306   -1.81229391      14
Cr     0.03741206    1.78375700    1.72639199      15
Ni    -1.75707423   -0.00848291   -1.82236773      16
Co    -1.73938253    0.02134444    1.74794705      17
Cr     0.00000000    0.00000000    0.00000000      18
          18
Lattice="  24.8920   0.0000   0.0000   0.0000  24.8920   0.0000   0.0000   0.0000  24.8920 " ConfE="      -5944.4071" DelE="          0.6306"
Co     3.45556851   -0.04826663   -0.05807340       1
Ni     0.05110753   -3.44613335   -0.00259435       2
Cr    -3.48321087    0.01927847   -0.04954926       3
Co    -0.00639215    3.59877757   -0.07001824       4
Co    -0.04487865    0.03847648   -3.66437243       5
Co     0.01671766   -0.00240643    3.55517428       6
Ni     1.74899760    0.03102549   -1.93248464       7
Cr     1.90398937    0.08835705    1.91326747       8
Ni     0.01454574   -1.76878113   -1.86978735       9
Cr    -0.04132417   -1.77585896    1.89442798      10
Ni     1.73185913    1.74969044   -0.06588059      11
Co    -1.70672570   -1.71864445    0.01392986      12
Co    -1.71257490    1.73469471   -0.05595119      13
Co    -0.01709283    1.77898922   -1.82211323      14
Cr     0.02712545    1.67039372    1.65042834      15
Ni    -1.72322313   -0.01674800   -1.80772608      16
Co    -1.64166438    0.00967791    1.70143874      17
Cr     0.80089190   -0.71122225    0.06180967      18
          18
Lattice="  24.8920   0.0000   0.0000   0.0000  24.8920   0.0000   0.0000   0.0000  24.8920 " ConfE="      -5945.0674" DelE="         -0.0296"
Co     3.57554425    0.02173408   -0.04105124       1
Ni     0.02748357   -3.53012000   -0.01609247       2
Cr    -3.51286625    0.02492006   -0.05168032       3
Co    -0.01690124    3.61207263   -0.06974437       4
Co    -0.03415160    0.03647914   -3.62158333       5
Co     0.00543867    0.00543190    3.55976602       6
Ni     1.71284681    0.01623741   -1.79471878       7
Cr     1.76432908    0.04499050    1.74226980       8
Ni     0.01243044   -1.74137099   -1.76963076       9
Cr     0.00557607   -1.58157632    1.66644191      10
Ni     1.72428698    1.75730541   -0.06098471      11
Co    -1.71526693   -1.73557954    0.03010654      12
Co    -1.76053043    1.76887407   -0.06099039      13
Co    -0.03857208    1.79802736   -1.81693837      14
Cr    -0.00161789    1.68515763    1.65292746      15
Ni    -1.74955424   -0.00281660   -1.79735284      16
Co    -1.70822580    0.03248944    1.71285736      17
Cr     1.78462364   -1.68337677   -0.06899576      18
