          18
Lattice="  24.8920   0.0000   0.0000   0.0000  24.8920   0.0000   0.0000   0.0000  24.8920 " ConfE="      -5940.4332" DelE="          0.0000"
Ni     3.59281615    0.00517340   -0.04535365       1
Cr    -0.01863917    0.02302007    3.51810726       2
Co     0.04596355   -3.44787657    0.03219404       3
Ni    -3.52572541    0.01008590   -0.02883494       4
Co     0.03404389    0.01081532   -3.57939131       5
Cr    -0.01877269    3.55229114   -0.06654640       6
Ni     1.77467752    0.01667918    1.72756210       7
Cr     1.76310022   -1.77302283   -0.00703298       8
Cr    -1.70338610   -1.80833159    0.07408957       9
Co    -1.72260646   -0.03367522    1.77927187      10
Ni    -1.75010014   -0.00689513   -1.81669963      11
Ni     0.03562270    1.77338052   -1.81813654      12
Co     1.82153712    1.80350347   -0.02535480      13
Cr    -0.00766427    1.86063743    1.72590384      14
Cr     1.77315454   -0.01656851   -1.77684489      15
Co     0.02268224   -1.73704420   -1.82004413      16
Co    -1.75431643    1.79764325   -0.00585548      17
Ni     0.00000000    0.00000000    0.00000000      18
          18
Lattice="  24.8920   0.0000   0.0000   0.0000  24.8920   0.0000   0.0000   0.0000  24.8920 " ConfE="      -5940.0306" DelE="          0.4026"
Ni     3.64266501    0.02825538   -0.06053348       1
Cr    -0.01008334   -0.00695732    3.42580737       2
Co     0.03365978   -3.43528294    0.02932773       3
Ni    -3.57342992    0.03065773   -0.05176433       4
Co     0.02910854    0.00463665   -3.57448265       5
Cr    -0.01039619    3.56959725   -0.04949134       6
Ni     1.92602010    0.05982620    1.74853358       7
Cr     1.98520842   -1.82495160   -0.04149583       8
Cr    -1.91668165   -1.82790912   -0.01741957       9
Co    -1.87010963    0.00905671    1.79017596      10
Ni    -1.74381268   -0.01210354   -1.79441186      11
Ni     0.03653796    1.74991149   -1.78102443      12
Co     1.81621499    1.78952294   -0.02052120      13
Cr    -0.01829698    1.74725919    1.65641787      14
Cr     1.65941146   -0.06127620   -1.65055052      15
Co     0.02636898   -1.72522958   -1.77157132      16
Co    -1.72324481    1.75534797   -0.00409629      17
Ni     0.03929381   -0.67770388    0.55883745      18
          18
Lattice="  24.8920   0.0000   0.0000   0.0000  24.8920   0.0000   0.0000   0.0000  24.8920 " ConfE="      -5940.5962" DelE="         -0.1631"
Ni     3.61386928    0.01420314   -0.04822275       1
Cr    -0.01327936    0.06050156    3.56258548       2
Co     0.03588515   -3.53182790   -0.01635674       3
Ni    -3.54865570    0.01444086   -0.03947481       4
Co     0.03023370    0.00543580   -3.59013960       5
Cr    -0.01675811    3.56749909   -0.06101336       6
Ni     1.77862932    0.05105995    1.69990166       7
Cr     1.76733345   -1.72690916   -0.05898855       8
Cr    -1.73819209   -1.78488372   -0.00005035       9
Co    -1.73454774    0.01376511    1.72961027      10
Ni    -1.73019526   -0.00327302   -1.79399608      11
Ni     0.04095954    1.75278571   -1.79741203      12
Co     1.79734499    1.78758996   -0.03309274      13
Cr    -0.02892128    1.79457734    1.67382645      14
Cr     1.73304662   -0.00724815   -1.73787674      15
Co     0.04498096   -1.68990917   -1.71874122      16
Co    -1.70340517    1.76138497   -0.00862470      17
Ni     0.03314530   -1.69532331    1.70234466      18
