          18
Lattice="  24.8920   0.0000   0.0000   0.0000  24.8920   0.0000   0.0000   0.0000  24.8920 " ConfE="      -5942.9288" DelE="          0.0000"
Cr    -3.47617290   -0.03492628   -0.00664513       1
Cr     0.02289577    3.44237293   -0.02576127       2
Cr     3.57678007   -0.00683710   -0.02421786       3
Ni     0.02917852   -3.60806592   -0.05458870       4
Ni     0.04390619   -0.01231980   -3.57091860       5
Cr     0.00754063   -0.04089141    3.49440131       6
Co    -1.80193812   -0.00034582   -1.76845451       7
Co    -1.75695416   -0.03929892    1.73174246       8
Ni     0.01783743    1.72568115   -1.77722064       9
Cr    -0.14510923    1.71670787    1.63834876      10
Ni    -1.76884429   -1.84983290   -0.05701033      11
Co     1.83732746    1.69459604   -0.00464506      12
Cr     1.79465230   -1.78622243   -0.01813464      13
Cr    -0.00989231   -1.77366421   -1.80419394      14
Ni     0.00873825   -1.84087535    1.73043877      15
Co     1.82508395   -0.06334548   -1.76598995      16
Cr     1.77415109   -0.01689833    1.74011324      17
Co     0.00000000    0.00000000    0.00000000      18
          18
Lattice="  24.8920   0.0000   0.0000   0.0000  24.8920   0.0000   0.0000   0.0000  24.8920 " ConfE="      -5942.2715" DelE="          0.6573"
Cr    -3.42989440   -0.02884128    0.00635426       1
Cr    -0.00263509    3.37331234   -0.02679553       2
Cr     3.59637492    0.00152521   -0.01773444       3
Ni     0.03134715   -3.60843974   -0.06413150       4
Ni     0.06352865   -0.01216622   -3.63923829       5
Cr     0.02953840   -0.07180556    3.56626426       6
Co    -1.79357866   -0.07512437   -1.94227553       7
Co    -1.77115744   -0.13966366    1.92865118       8
Ni     0.08546026    1.74979774   -1.92156198       9
Cr    -0.08921964    1.76166556    1.83145428      10
Ni    -1.72970301   -1.78394626   -0.06508664      11
Co     1.73652276    1.65326916   -0.00015708      12
Cr     1.73723525   -1.70283013   -0.03998401      13
Cr    -0.00496008   -1.72845750   -1.79849934      14
Ni     0.02018216   -1.80466275    1.70443972      15
Co     1.78246535   -0.07513561   -1.75406688      16
Cr     1.70953092    0.01583912    1.71772024      17
Co    -0.79232023    0.75182724    0.01036186      18
          18
Lattice="  24.8920   0.0000   0.0000   0.0000  24.8920   0.0000   0.0000   0.0000  24.8920 " ConfE="      -5942.9102" DelE="          0.0187"
Cr    -3.52930627   -0.06874166   -0.00670404       1
Cr     0.04460192    3.48862912   -0.03044960       2
Cr     3.62767553   -0.01348322   -0.01990766       3
Ni     0.03268867   -3.61316489   -0.05890905       4
Ni     0.05611385   -0.01688796   -3.60040705       5
Cr     0.01974052   -0.05970125    3.53400198       6
Co    -1.75133329   -0.05993035   -1.80659866       7
Co    -1.71227410   -0.05530156    1.74152710       8
Ni     0.04058056    1.69802503   -1.77953410       9
Cr    -0.05429127    1.67938641    1.66860980      10
Ni    -1.74066820   -1.80413185   -0.06111263      11
Co     1.78843949    1.64952868    0.00796577      12
Cr     1.78564449   -1.75653536   -0.03919450      13
Cr    -0.00088333   -1.75783486   -1.79372011      14
Ni     0.03133517   -1.79448762    1.68344400      15
Co     1.78236336   -0.10197500   -1.72338860      16
Cr     1.76508709   -0.00903416    1.70624929      17
Co    -1.72619511    1.68098694   -0.02496013      18
