          18
Lattice="  24.8920   0.0000   0.0000   0.0000  24.8920   0.0000   0.0000   0.0000  24.8920 " ConfE="      -5938.6586" DelE="          0.0000"
Ni     0.02653176    0.01668054   -3.46039740       1
Ni     0.05427540   -3.49640693    0.02392043       2
Co     0.08413902    3.58494698    0.06726676       3
Cr     0.00266999    0.06400147    3.64580130       4
Co     3.61809460   -0.02070288    0.06512685       5
Co    -3.53680142    0.03184313    0.02165986       6
Ni     1.79687073   -0.02522270   -1.69948391       7
Ni    -1.72011155   -1.76475429    0.03149863       8
Ni     0.03469163   -1.74684952    1.88000326       9
Cr    -1.63856855    0.06136006   -1.62975897      10
Co     1.82617372   -1.78962223    0.04803897      11
Ni     1.78023671    0.00615463    1.82225410      12
Ni    -1.73451560    0.00607350    1.80505261      13
Co     0.06459334    1.83457498   -1.69211098      14
Co     0.01949810    1.79451397    1.79674182      15
Cr    -1.77269158    1.82544131    0.10422829      16
Cr     1.83726523    1.72521219    0.06910437      17
Co     0.00000000    0.00000000    0.00000000      18
          18
Lattice="  24.8920   0.0000   0.0000   0.0000  24.8920   0.0000   0.0000   0.0000  24.8920 " ConfE="      -5934.4309" DelE="          4.2277"
Ni     0.00325218    0.04093240   -3.50689806       1
Ni     0.07398950   -3.56624990   -0.03565174       2
Co     0.09913686    3.59593661    0.02757669       3
Cr    -0.23213276    0.86373425    3.70351927       4
Co     3.61310971    0.02016775    0.00752530       5
Co    -3.58374155    0.03917130   -0.00293485       6
Ni     0.50070143   -0.54804541   -1.14057600       7
Ni    -1.78344876   -1.71711857   -0.09506823       8
Ni     0.21594334   -1.23896680    3.39097389       9
Cr    -1.74080131    0.08294890   -1.66591852      10
Co     2.07787270   -1.86216800    0.07338280      11
Ni     1.79955970   -0.02124753    1.91490533      12
Ni    -1.69750024   -0.02339784    1.81361659      13
Co     0.05964805    1.82133303   -1.69594695      14
Co     0.00692532    1.76467922    1.64227882      15
Cr    -1.76260347    1.78810886    0.02486494      16
Cr     1.71896905    1.50088818   -0.02078350      17
Co     0.11101767   -1.56945568    1.19131304      18
          18
Lattice="  24.8920   0.0000   0.0000   0.0000  24.8920   0.0000   0.0000   0.0000  24.8920 " ConfE="      -5939.2229" DelE="         -0.5643"
Ni     0.02659302    0.01724094   -3.45288189       1
Ni     0.05327286   -3.50077726    0.02615625       2
Co     0.07841800    3.58435663    0.07393211       3
Cr     0.00438623    1.82235406    1.80817333       4
Co     3.61081190   -0.02286072    0.07391083       5
Co    -3.52845243    0.02567294    0.02495066       6
Ni     1.79679505   -0.02886098   -1.70113801       7
Ni    -1.71297805   -1.76882872    0.04115265       8
Ni     0.01827058    0.02596839    3.60344035       9
Cr    -1.63765627    0.04115398   -1.63447511      10
Co     1.81647771   -1.79141398    0.05067185      11
Ni     1.77723683    0.01585795    1.81728567      12
Ni    -1.72937584    0.00008491    1.80507513      13
Co     0.06314709    1.83277429   -1.66443996      14
Co     0.00381023    0.00192975    0.01726038      15
Cr    -1.79728009    1.82560502    0.10476776      16
Cr     1.85225933    1.72759905    0.06402706      17
Co     0.05277395   -1.76780435    1.88141597      18
