          18
Lattice="  24.8920   0.0000   0.0000   0.0000  24.8920   0.0000   0.0000   0.0000  24.8920 " ConfE="      -5938.2385" DelE="          0.0000"
Cr    -3.52044992    0.00127906    0.01828131       1
Co     0.00779015    3.55083836   -0.01307360       2
Co    -0.06054990   -3.55150863   -0.09290370       3
Cr     3.49951780   -0.03722202   -0.03538882       4
Co    -0.02673274    0.02396054    3.53230875       5
Co    -0.06613525   -0.03266759   -3.55324200       6
Ni    -0.02652288    1.79292010    1.74753085       7
Ni    -1.76990416    0.01470677   -1.73306012       8
Ni    -0.01091798    1.76221899   -1.73954139       9
Cr    -1.75442083   -0.02109086    1.72476903      10
Ni     1.73475183   -1.82293094   -0.01686411      11
Co    -1.81931862   -1.82728615   -0.04941940      12
Cr     1.79248786    1.79625848    0.02395740      13
Co    -0.02884603   -1.79202073    1.76990942      14
Co     1.78413864   -0.02040772    1.73574912      15
Cr    -0.02311900   -1.81993974   -1.79373711      16
Cr     1.77105709   -0.10247901   -1.83884074      17
Ni     0.00000000    0.00000000    0.00000000      18
          18
Lattice="  24.8920   0.0000   0.0000   0.0000  24.8920   0.0000   0.0000   0.0000  24.8920 " ConfE="      -5937.6462" DelE="          0.5923"
Cr    -3.47023736    0.01090230    0.00767155       1
Co    -0.00874514    3.50221907    0.00280572       2
Co    -0.06881796   -3.55103152   -0.09455871       3
Cr     3.50948800   -0.02373462   -0.01990038       4
Co     0.00441330    0.00740060    3.58926269       5
Co    -0.04484008   -0.04571893   -3.61777679       6
Ni     0.02368120    1.86606373    1.95673490       7
Ni    -1.80256598   -0.02991597   -1.92141903       8
Ni     0.00355318    1.76800403   -1.87696005       9
Cr    -1.71573773   -0.13969320    1.98652116      10
Ni     1.67802667   -1.76807890   -0.02215058      11
Co    -1.78155393   -1.73748729   -0.05968393      12
Cr     1.65162646    1.72472348    0.02721266      13
Co    -0.04443936   -1.74990441    1.74729031      14
Co     1.69783812    0.01890849    1.68567054      15
Cr    -0.03895241   -1.76096739   -1.75544747      16
Cr     1.69671852   -0.06466499   -1.77950932      17
Ni    -0.91330298    0.83109415    0.09156258      18
          18
Lattice="  24.8920   0.0000   0.0000   0.0000  24.8920   0.0000   0.0000   0.0000  24.8920 " ConfE="      -5938.1949" DelE="          0.0436"
Cr    -3.56040590   -0.05509004    0.03349407       1
Co     0.02091874    3.58136284   -0.00717778       2
Co    -0.06101570   -3.56944668   -0.09791524       3
Cr     3.51776270   -0.03873591   -0.03422710       4
Co    -0.01804913    0.02156093    3.55568836       5
Co    -0.05612462   -0.04094497   -3.57524485       6
Ni    -0.00117757    1.78758056    1.77148737       7
Ni    -1.73189426   -0.02225084   -1.72709124       8
Ni     0.01643283    1.72408347   -1.72738571       9
Cr    -1.66712658   -0.11086492    1.71363760      10
Ni     1.69705490   -1.79375521   -0.03023167      11
Co    -1.78967459   -1.79062926   -0.04385008      12
Cr     1.73971175    1.72444234    0.01983947      13
Co    -0.03642781   -1.75926688    1.73162525      14
Co     1.72411860    0.00185165    1.66197776      15
Cr    -0.00822333   -1.80538845   -1.78354787      16
Cr     1.73728101   -0.08902082   -1.78441301      17
Ni    -1.74253382    1.72779088    0.03822560      18
