          18
Lattice="  24.8920   0.0000   0.0000   0.0000  24.8920   0.0000   0.0000   0.0000  24.8920 " ConfE="      -5943.9800" DelE="          0.0000"
Co    -0.05000518    0.00524586    3.53570702       1
Ni     0.00027775    3.50676430    0.00040440       2
Cr    -0.03382127   -0.07017457   -3.57485753       3
Ni     0.01094299   -3.56561269   -0.02607222       4
Cr    -3.52592084   -0.01008260   -0.03313021       5
Ni     3.52011585   -0.00814588    0.01532474       6
Ni    -1.73383228    0.03933340    1.74118173       7
Ni     1.72285242   -0.00314182    1.77884569       8
Cr    -1.77992538    1.76137088   -0.06012055       9
Ni     1.77199967    1.77588238    0.01567308      10
Cr    -0.06982312   -1.82487034    1.80166070      11
Ni     0.00372963    1.75283249   -1.81726279      12
Co    -0.01491885   -1.76417123   -1.82484180      13
Co    -1.76530009   -1.77845625   -0.00738686      14
Ni     1.75622629   -1.79242832   -0.02576527      15
Cr    -1.73255393   -0.05889312   -1.79511573      16
Ni     1.77277226   -0.01066206   -1.80568650      17
Ni     0.00000000    0.00000000    0.00000000      18
          18
Lattice="  24.8920   0.0000   0.0000   0.0000  24.8920   0.0000   0.0000   0.0000  24.8920 " ConfE="      -5943.1231" DelE="          0.8569"
Co    -0.04528358    0.00048083    3.49294057       1
Ni     0.00402146    3.48909848    0.01148958       2
Cr    -0.03026524   -0.06002528   -3.57028387       3
Ni     0.01846064   -3.55306325   -0.01562090       4
Cr    -3.60847041   -0.06714829   -0.08101038       5
Ni     3.58577159   -0.02244685   -0.00819886       6
Ni    -1.93660562   -0.06510292    1.77355970       7
Ni     1.90205596   -0.02910344    1.78646281       8
Cr    -1.91382239    1.74668563   -0.10177927       9
Ni     1.90342336    1.79915642   -0.03145543      10
Cr    -0.03146436   -1.68085504    1.75504649      11
Ni    -0.00125477    1.71415921   -1.73879406      12
Co    -0.01113635   -1.70902271   -1.78981902      13
Co    -1.70520286   -1.70941832   -0.01543274      14
Ni     1.73498287   -1.73928230   -0.01116305      15
Cr    -1.67799215   -0.06903795   -1.73698248      16
Ni     1.76973997    0.00638299   -1.77942509      17
Ni    -0.05362642    1.11105394    1.11995550      18
          18
Lattice="  24.8920   0.0000   0.0000   0.0000  24.8920   0.0000   0.0000   0.0000  24.8920 " ConfE="      -5943.7783" DelE="          0.2017"
Co    -0.04844471   -0.01975009    3.57707250       1
Ni    -0.00055661    3.54748298   -0.02818659       2
Cr    -0.03103761   -0.06568308   -3.59942571       3
Ni     0.01399675   -3.58277879   -0.02912089       4
Cr    -3.55498124   -0.04121291   -0.04639768       5
Ni     3.52513122   -0.01360184    0.00725760       6
Ni    -1.72290643   -0.00890917    1.72147892       7
Ni     1.70725624   -0.03872088    1.73741954       8
Cr    -1.75709765    1.69174792   -0.07495583       9
Ni     1.77268575    1.76178784   -0.01471844      10
Cr    -0.06174310   -1.80618642    1.78428628      11
Ni    -0.00787794    1.72535822   -1.77727864      12
Co    -0.02055656   -1.72497345   -1.80791488      13
Co    -1.69686711   -1.72846930   -0.02110383      14
Ni     1.71210188   -1.76849198   -0.02552726      15
Cr    -1.67302764   -0.08202441   -1.77187387      16
Ni     1.74676228   -0.00786006   -1.79574436      17
Ni     0.00593647    1.74209677    1.73750680      18
