          18
Lattice="  24.8920   0.0000   0.0000   0.0000  24.8920   0.0000   0.0000   0.0000  24.8920 " ConfE="      -5924.0382" DelE="          0.0000"
Ni    -0.05002838    3.43011205   -0.02641567       1
Ni    -0.08967020   -0.03810533   -3.55946398       2
Co    -0.05639394   -3.58007407    0.02909655       3
Co    -0.06844078   -0.02012489    3.56626722       4
Cr    -3.68781843    0.01569403    0.05563152       5
Cr     3.43066973   -0.04594803    0.03212384       6
Ni    -1.80645080   -0.00548204   -1.75706010       7
Ni     1.67149506    0.01505683   -1.78061308       8
Co    -1.80780931    1.67040924    0.01585460       9
Co     1.71562896    1.73929302   -0.02404958      10
Ni    -1.83186454   -1.76768375    0.00938338      11
Cr    -0.04638798    1.64838196    1.77577987      12
Co    -0.04790900   -1.84148145   -1.75937385      13
Cr    -0.01626991   -1.69929382    1.76879747      14
Co    -1.84551479   -0.03128656    1.77757706      15
Co     1.72418166    0.00420667    1.78271940      16
Co     1.72578387   -1.79559192   -0.01227761      17
Cr     0.00000000    0.00000000    0.00000000      18
          18
Lattice="  24.8920   0.0000   0.0000   0.0000  24.8920   0.0000   0.0000   0.0000  24.8920 " ConfE="      -5923.0601" DelE="          0.9781"
Ni    -0.05741519    3.40448835   -0.00944540       1
Ni    -0.08724368   -0.02374904   -3.48213716       2
Co    -0.05935851   -3.56754868    0.01637987       3
Co    -0.07344496   -0.01520816    3.56775958       4
Cr    -3.79341863   -0.02446153    0.07934976       5
Cr     3.58328596   -0.08319262    0.10347525       6
Ni    -1.98597732   -0.07021440   -1.77409566       7
Ni     1.84664663   -0.03322129   -1.77280708       8
Co    -1.94258355    1.68868497    0.02265888       9
Co     1.81771787    1.73176504   -0.00252336      10
Ni    -1.83592633   -1.72699595    0.01322347      11
Cr    -0.07462050    1.54482973    1.65466495      12
Co    -0.04908971   -1.72806944   -1.69888128      13
Cr    -0.01303481   -1.57778859    1.65230045      14
Co    -1.82950005   -0.01071061    1.74298075      15
Co     1.68187702    0.01897610    1.72862905      16
Co     1.69922458   -1.74230278   -0.00286278      17
Cr    -0.08760973    0.91783745   -0.95114508      18
          18
Lattice="  24.8920   0.0000   0.0000   0.0000  24.8920   0.0000   0.0000   0.0000  24.8920 " ConfE="      -5923.5828" DelE="          0.4554"
Ni    -0.04808480    3.51084398    0.00981631       1
Ni    -0.08560031   -0.04843704   -3.55771371       2
Co    -0.05801772   -3.60388973    0.02744170       3
Co    -0.06823068   -0.01752349    3.58057860       4
Cr    -3.72575644    0.00023008    0.05873191       5
Cr     3.51247288   -0.07131321    0.05359214       6
Ni    -1.82637580   -0.03140031   -1.73058624       7
Ni     1.69269583   -0.02601606   -1.73681554       8
Co    -1.79541431    1.67974391    0.01416728       9
Co     1.70591913    1.72906684   -0.00748880      10
Ni    -1.82537628   -1.75067052    0.02081331      11
Cr    -0.07465794    1.52706197    1.56265564      12
Co    -0.04792109   -1.79775934   -1.72655471      13
Cr    -0.00484675   -1.60539519    1.67141548      14
Co    -1.82470272   -0.03217038    1.75988587      15
Co     1.68172856    0.00659110    1.74353901      16
Co     1.69665444   -1.78515971    0.00558349      17
Cr    -0.04457520    1.66559735   -1.62775498      18
