          18
Lattice="  24.8920   0.0000   0.0000   0.0000  24.8920   0.0000   0.0000   0.0000  24.8920 " ConfE="      -5937.0958" DelE="          0.0000"
Co    -0.05245209    3.49258475    0.05511127       1
Cr     3.49451447    0.02878359   -0.00087711       2
Cr    -0.06230063   -3.59578471    0.01902408       3
Ni    -3.60202358   -0.02677142    0.01691210       4
Ni    -0.02743669   -0.01828227   -3.53586146       5
Ni    -0.06906903   -0.01611849    3.56404956       6
Ni    -0.03005332    1.75129738   -1.76356667       7
Ni    -0.03769896    1.72592396    1.76862393       8
Ni     1.75484185    0.00570969   -1.73270769       9
Cr     1.79462162    0.04158245    1.71995771      10
Co    -1.84588321    1.74082146    0.01134106      11
Co     1.72134215   -1.84085611    0.01457338      12
Cr    -1.80950210   -1.79687912   -0.02555981      13
Co    -1.82107921   -0.01433185   -1.75190023      14
Cr    -1.85193983   -0.06578941    1.77133075      15
Co    -0.06977709   -1.84311056   -1.73538632      16
Ni    -0.04840714   -1.77824173    1.78090870      17
Ni     0.00000000    0.00000000    0.00000000      18
          18
Lattice="  24.8920   0.0000   0.0000   0.0000  24.8920   0.0000   0.0000   0.0000  24.8920 " ConfE="      -5936.5596" DelE="          0.5362"
Co    -0.02840635    3.45798342    0.05783990       1
Cr     3.44107230    0.04753040   -0.02283094       2
Cr    -0.03935276   -3.60071407    0.03065918       3
Ni    -3.60082221   -0.01060307    0.01700780       4
Ni    -0.04204703   -0.03042828   -3.59699398       5
Ni    -0.09110498   -0.02338397    3.61154525       6
Ni    -0.05618832    1.75344285   -1.88552292       7
Ni    -0.08503918    1.79608316    1.94073717       8
Ni     1.76960089   -0.06262799   -1.91106145       9
Cr     1.84773447   -0.01584330    1.94509537      10
Co    -1.76961990    1.70540764    0.03514540      11
Co     1.69476253   -1.75763810    0.01778425      12
Cr    -1.71884318   -1.69905644   -0.04033146      13
Co    -1.77815088   -0.02347971   -1.71227724      14
Cr    -1.81065783   -0.03403513    1.74394062      15
Co    -0.05683203   -1.80933194   -1.71910647      16
Ni    -0.04393501   -1.74347947    1.78118102      17
Ni     0.80466294    0.73169007    0.05810014      18
          18
Lattice="  24.8920   0.0000   0.0000   0.0000  24.8920   0.0000   0.0000   0.0000  24.8920 " ConfE="      -5937.0393" DelE="          0.0565"
Co    -0.07292459    3.51529957    0.05387401       1
Cr     3.56048973   -0.01827025   -0.00626416       2
Cr    -0.05468851   -3.60287363    0.02655065       3
Ni    -3.63506874   -0.02526901    0.01409792       4
Ni    -0.03694591   -0.02549559   -3.55363035       5
Ni    -0.07758039   -0.01709152    3.58438558       6
Ni    -0.05009813    1.71514360   -1.76092479       7
Ni    -0.05313740    1.67527086    1.74980369       8
Ni     1.72139628   -0.03308281   -1.75248512       9
Cr     1.78362464   -0.01584780    1.74941837      10
Co    -1.81221671    1.69391601    0.01760778      11
Co     1.68875331   -1.75687224    0.02212004      12
Cr    -1.77345427   -1.73741191   -0.04855353      13
Co    -1.79388816   -0.04049159   -1.69761886      14
Cr    -1.84808606   -0.05920963    1.73698226      15
Co    -0.07844900   -1.82606854   -1.70267370      16
Ni    -0.06662011   -1.72895190    1.74930506      17
Ni     1.71809042    1.68972237    0.00564523      18
