          18
Lattice="  24.8920   0.0000   0.0000   0.0000  24.8920   0.0000   0.0000   0.0000  24.8920 " ConfE="      -5945.0859" DelE="          0.0000"
Co     3.50126122   -0.00796874    0.06537066       1
Co     0.03260193    0.01395368    3.53030155       2
Co    -3.57890798   -0.04289373    0.00419532       3
Co    -0.05454572   -0.03455814   -3.54802103       4
Co    -0.03429319    3.53247681    0.03846337       5
Co    -0.02500661   -3.58389537    0.02188821       6
Ni    -0.02319584    1.71200822    1.76710783       7
Ni     0.01638502   -1.72637989    1.80870229       8
Ni     1.72933459   -1.77136466    0.03117738       9
Co     1.78632562    1.75634524    0.05803647      10
Ni    -1.77426864   -1.77994681    0.00086548      11
Co     1.73872379    0.00515132   -1.81405237      12
Co    -1.84441977   -0.02244507    1.77374050      13
Co    -0.06128616    1.75976295   -1.76313059      14
Cr    -1.81980960   -0.00176812   -1.76130739      15
Co    -1.83716429    1.75621675   -0.00580694      16
Co    -0.04879971   -1.79502541   -1.79276033      17
Ni     0.00000000    0.00000000    0.00000000      18
          18
Lattice="  24.8920   0.0000   0.0000   0.0000  24.8920   0.0000   0.0000   0.0000  24.8920 " ConfE="      -5944.4630" DelE="          0.6229"
Co     3.46501696   -0.01681297    0.05848572       1
Co     0.02483268   -0.00554617    3.47092571       2
Co    -3.58712786   -0.04881631    0.01654048       3
Co    -0.04169167   -0.03085130   -3.56059099       4
Co    -0.04923135    3.57815598    0.02654866       5
Co    -0.05461758   -3.63736826   -0.00104648       6
Ni    -0.10713171    1.86928322    1.80541823       7
Ni    -0.05512141   -1.92345078    1.83246416       8
Ni     1.75905052   -1.95864147   -0.02118065       9
Co     1.83903232    1.93403756    0.01396602      10
Ni    -1.76227501   -1.77770258    0.00817805      11
Co     1.69670076   -0.00211975   -1.74143672      12
Co    -1.78853714   -0.02678438    1.75025781      13
Co    -0.05400894    1.72680339   -1.71174731      14
Cr    -1.71816855    0.00962157   -1.67139870      15
Co    -1.81135748    1.73428477   -0.00072378      16
Co    -0.05366443   -1.76116312   -1.76202151      17
Ni     0.78904915    0.00022649    0.77965464      18
          18
Lattice="  24.8920   0.0000   0.0000   0.0000  24.8920   0.0000   0.0000   0.0000  24.8920 " ConfE="      -5945.2518" DelE="         -0.1659"
Co     3.54148905   -0.02162188    0.02211025       1
Co    -0.03958569    0.00640493    3.56400515       2
Co    -3.60401765   -0.04681970    0.01568372       3
Co    -0.05315542   -0.03537110   -3.56832941       4
Co    -0.04359842    3.54940620    0.03509039       5
Co    -0.03842407   -3.60430303    0.01013402       6
Ni    -0.06070181    1.69826344    1.72759264       7
Ni    -0.04221773   -1.75091192    1.79081574       8
Ni     1.67809434   -1.76006261    0.00034070       9
Co     1.76105374    1.76077411    0.02745911      10
Ni    -1.75493278   -1.74785968   -0.00356321      11
Co     1.69098632    0.00244214   -1.76157496      12
Co    -1.82660490   -0.02496008    1.75716367      13
Co    -0.07741314    1.69780442   -1.71207578      14
Cr    -1.76697773    0.01168110   -1.70261333      15
Co    -1.82748138    1.71680984   -0.01163415      16
Co    -0.07079523   -1.75788780   -1.78176977      17
Ni     1.71343992   -0.02146682    1.76921277      18
