          18
Lattice="  24.8920   0.0000   0.0000   0.0000  24.8920   0.0000   0.0000   0.0000  24.8920 " ConfE="      -5933.4692" DelE="          0.0000"
Ni     3.45481949   -0.08647890    0.00206529       1
Ni    -0.06972108   -0.07655611    3.60640984       2
Cr    -0.06528492    3.41757719   -0.00630937       3
Co    -0.06023216   -0.11223084   -3.58623241       4
Cr    -0.00727253   -3.61674797    0.01272608       5
Cr    -3.56826295   -0.16626501    0.01453365       6
Cr     1.69338079   -0.07008413   -1.77965457       7
Ni    -0.06286206   -1.86680236   -1.78705072       8
Cr    -0.02609312    1.68680482   -1.78519682       9
Cr     1.68302468   -0.06500584    1.74866710      10
Cr    -0.06791059    1.66583207    1.74664892      11
Co     1.69949420   -1.89495200   -0.00297705      12
Co    -1.81408847   -0.07897328   -1.79325043      13
Cr    -1.80722985   -1.82173106   -0.03074548      14
Co    -1.90719297    1.65999951   -0.03953518      15
Cr    -0.11904890   -1.80597304    1.77060433      16
Co    -1.82490448   -0.04636574    1.79253303      17
Co     0.00000000    0.00000000    0.00000000      18
          18
Lattice="  24.8920   0.0000   0.0000   0.0000  24.8920   0.0000   0.0000   0.0000  24.8920 " ConfE="      -5932.3727" DelE="          1.0966"
Ni     3.40008890   -0.09925364   -0.00605074       1
Ni    -0.08676630   -0.09708215    3.70144790       2
Cr    -0.06076768    3.37559607   -0.01401956       3
Co    -0.05846785   -0.13268356   -3.69992981       4
Cr    -0.12700738   -3.57753736   -0.00871773       5
Cr    -3.44462452   -0.34013151   -0.03244640       6
Cr     1.68257760   -0.14875470   -1.92974117       7
Ni    -0.05857791   -1.89375050   -1.93680601       8
Cr    -0.08883548    1.68392601   -2.03965769       9
Cr     1.62668263   -0.13888031    1.85615402      10
Cr    -0.16403948    1.61786828    1.88946761      11
Co     1.54829963   -1.80962432   -0.01492504      12
Co    -1.81977639   -0.07971297   -1.95001021      13
Cr    -1.06184464   -1.02775494    0.00970471      14
Co    -1.80433506    1.55928603   -0.06997014      15
Cr    -0.11716045   -1.86250315    1.94173094      16
Co    -1.86266598   -0.02711737    1.93428470      17
Co     0.76980918    0.82155070   -0.05939639      18
          18
Lattice="  24.8920   0.0000   0.0000   0.0000  24.8920   0.0000   0.0000   0.0000  24.8920 " ConfE="      -5933.2650" DelE="          0.2042"
Ni     3.46077460   -0.11560327    0.00005852       1
Ni    -0.09135205   -0.11228210    3.61641478       2
Cr    -0.10466616    3.48130010   -0.01111066       3
Co    -0.06790442   -0.14094904   -3.60572565       4
Cr    -0.20768340   -3.52394342    0.00408473       5
Cr    -3.28068282   -0.46970814   -0.06382823       6
Cr     1.65471891   -0.12125425   -1.81109118       7
Ni    -0.12104220   -1.90777343   -1.82095798       8
Cr    -0.07235985    1.68819423   -1.87977637       9
Cr     1.63079515   -0.12034799    1.76758502      10
Cr    -0.11644202    1.65468141    1.79246052      11
Co     1.68263473   -1.88829440   -0.01239421      12
Co    -1.82002905   -0.11077267   -1.84063827      13
Cr    -0.26071449   -0.31920581   -0.02138948      14
Co    -1.87600124    1.65194533   -0.05844981      15
Cr    -0.22318036   -1.86975029    1.77676343      16
Co    -1.85613064   -0.06388804    1.81674924      17
Co     1.61214290    1.60831600   -0.02421986      18
