          18
Lattice="  24.8920   0.0000   0.0000   0.0000  24.8920   0.0000   0.0000   0.0000  24.8920 " ConfE="      -5933.9459" DelE="          0.0000"
Ni    -3.60585047    0.01386736    0.05500935       1
Ni    -0.06443144    3.54433165    0.04956655       2
Co     3.43105408    0.04166642    0.02523239       3
Ni    -0.06044213   -3.55580506    0.05966458       4
Cr    -0.06771161   -0.03411994    3.61569289       5
Co    -0.09483627    0.02774097   -3.49155811       6
Ni    -1.82350034    0.02156673    1.79522064       7
Ni    -1.84965392    0.02921078   -1.66670280       8
Ni    -0.10792669    1.76760572    1.77549951       9
Ni    -0.12177958    1.77919490   -1.66743858      10
Ni    -1.84283754   -1.79811553    0.05945119      11
Cr     1.74784002    1.78770567    0.01409354      12
Ni     1.71136871   -1.75899730    0.02587140      13
Ni    -0.06284525   -1.78481134    1.82138502      14
Co    -0.07408155   -1.73069211   -1.71396779      15
Co     1.65947936    0.04005578    1.80276422      16
Cr     1.71450495    0.05555662   -1.75840284      17
Cr     0.00000000    0.00000000    0.00000000      18
          18
Lattice="  24.8920   0.0000   0.0000   0.0000  24.8920   0.0000   0.0000   0.0000  24.8920 " ConfE="      -5932.8402" DelE="          1.1057"
Ni    -3.54608946    0.04452996    0.05831904       1
Ni    -0.07511333    3.47077384    0.04148889       2
Co     3.44367508    0.05208970    0.02996901       3
Ni    -0.07353057   -3.52598515    0.07109737       4
Cr    -0.05221972   -0.06100515    3.70323839       5
Co    -0.07993005    0.00688167   -3.60273646       6
Ni    -1.84471251   -0.01912305    1.94970165       7
Ni    -1.89780199   -0.02493989   -1.86295052       8
Ni    -0.08674824    1.79104342    1.94196079       9
Ni    -0.08085393    1.79747223   -1.88803280      10
Ni    -1.80877034   -1.69927795    0.05864896      11
Cr     1.64499283    1.69364813    0.01457059      12
Ni     1.62928273   -1.65020966    0.02704948      13
Ni    -0.08279296   -1.74894394    1.84002961      14
Co    -0.08688317   -1.66566017   -1.72529714      15
Co     1.60722447    0.07443051    1.78245153      16
Cr     1.60384278    0.05755092   -1.68777929      17
Cr    -1.03987966    0.95872798    0.01269347      18
          18
Lattice="  24.8920   0.0000   0.0000   0.0000  24.8920   0.0000   0.0000   0.0000  24.8920 " ConfE="      -5933.9256" DelE="          0.0204"
Ni    -3.64489945   -0.02603909    0.05945961       1
Ni    -0.05129041    3.56662369    0.04638851       2
Co     3.49031143    0.03280654    0.02668925       3
Ni    -0.05477028   -3.55939329    0.06570065       4
Cr    -0.07566323   -0.04825928    3.61939235       5
Co    -0.08588276    0.02562787   -3.51545671       6
Ni    -1.82630873   -0.00815264    1.80501853       7
Ni    -1.83391202   -0.00386563   -1.65910382       8
Ni    -0.11240470    1.74857749    1.75897078       9
Ni    -0.08521254    1.71794861   -1.63220320      10
Ni    -1.82789435   -1.77749338    0.06275777      11
Cr     1.73519050    1.73485627    0.04276468      12
Ni     1.67754143   -1.69256137    0.01869548      13
Ni    -0.06576066   -1.77828479    1.82062948      14
Co    -0.06434489   -1.70958748   -1.70993185      15
Co     1.64368781    0.05822887    1.76309798      16
Cr     1.71261953    0.05971479   -1.69497001      17
Cr    -1.91518663    1.80315113    0.07415523      18
