          18
Lattice="  24.8920   0.0000   0.0000   0.0000  24.8920   0.0000   0.0000   0.0000  24.8920 " ConfE="      -5933.7078" DelE="          0.0000"
Co    -0.10739073   -0.01791877    3.45523422       1
Cr     3.27859965   -0.05133639    0.05672997       2
Co    -0.09863664    3.55319880   -0.10727062       3
Cr    -0.15283608    0.00021218   -3.62519042       4
Co    -0.14110892   -3.60457320   -0.08407831       5
Cr    -3.67274231   -0.01682033   -0.04818825       6
Ni    -0.11167142    1.76824680    1.69402508       7
Co     1.67813305    1.68733344   -0.03638812       8
Ni     1.65690639   -0.02917922   -1.88911175       9
Cr     1.63835936   -1.83037966   -0.01013498      10
Co    -0.08742889   -1.74521656    1.69999427      11
Ni    -1.86272937    1.76556485   -0.08355980      12
Ni    -0.09848107   -1.79629592   -1.84933373      13
Ni    -1.86537722   -1.79721954   -0.07060558      14
Ni    -1.87634571   -0.02118909   -1.82746048      15
Cr    -1.85900397   -0.02590671    1.69131691      16
Co    -0.08044850    1.74404389   -1.84622253      17
Cr     0.00000000    0.00000000    0.00000000      18
          18
Lattice="  24.8920   0.0000   0.0000   0.0000  24.8920   0.0000   0.0000   0.0000  24.8920 " ConfE="      -5933.2818" DelE="          0.4261"
Co    -0.10497050   -0.02443699    3.37944216       1
Cr     3.33905826   -0.04721979   -0.02145489       2
Co    -0.10795733    3.60770405   -0.11240862       3
Cr    -0.14579887    0.00134244   -3.61780811       4
Co    -0.14997178   -3.64919369   -0.08785506       5
Cr    -3.66586290   -0.01311371   -0.02967653       6
Ni    -0.13756873    1.87938458    1.71724660       7
Co     1.66207945    1.79122091   -0.07206441       8
Ni     1.63321493   -0.02875426   -1.83327410       9
Cr     1.66194701   -1.95233745   -0.08175327      10
Co    -0.13772382   -1.92366583    1.75791464      11
Ni    -1.80860831    1.73260493   -0.05808795      12
Ni    -0.09026918   -1.78023629   -1.80944369      13
Ni    -1.81379328   -1.76162115   -0.03790669      14
Ni    -1.85701589   -0.01906166   -1.80508226      15
Cr    -1.83396978   -0.02122767    1.69826917      16
Co    -0.07691515    1.73718531   -1.82778135      17
Cr     0.50176888   -0.07848027    0.60260426      18
          18
Lattice="  24.8920   0.0000   0.0000   0.0000  24.8920   0.0000   0.0000   0.0000  24.8920 " ConfE="      -5933.7670" DelE="         -0.0592"
Co    -0.14238547   -0.03010899    3.52312957       1
Cr     3.39229643   -0.06278327    0.01581522       2
Co    -0.11209437    3.58945459   -0.12030635       3
Cr    -0.14977519    0.00703362   -3.61377121       4
Co    -0.14938525   -3.62927695   -0.09229129       5
Cr    -3.66000973   -0.01915332   -0.03205762       6
Ni    -0.14534488    1.78062044    1.65697716       7
Co     1.64999613    1.68057103   -0.05944606       8
Ni     1.62812611   -0.03655265   -1.82788410       9
Cr     1.63130179   -1.82937131   -0.04665997      10
Co    -0.14436035   -1.78617075    1.68459874      11
Ni    -1.86240185    1.75647474   -0.09820842      12
Ni    -0.10501384   -1.78691217   -1.83565875      13
Ni    -1.86924335   -1.80252198   -0.09087317      14
Ni    -1.87290223   -0.02027412   -1.82190241      15
Cr    -1.73725693   -0.04729969    1.60762050      16
Co    -0.08543068    1.75038089   -1.86227958      17
Cr     1.46147896   -0.06063468    1.64341868      18
