          18
Lattice="  24.8920   0.0000   0.0000   0.0000  24.8920   0.0000   0.0000   0.0000  24.8920 " ConfE="      -5940.1928" DelE="          0.0000"
Ni    -0.03302703    0.03603504    3.49224659       1
Co    -0.01472315    3.58772121   -0.03237083       2
Cr    -3.53335595   -0.02857805   -0.02363129       3
Cr     3.46238203    0.04450355    0.01019607       4
Co    -0.03420342   -3.53856002   -0.01476892       5
Co    -0.01353689    0.03094044   -3.56657556       6
Ni    -1.75075371    1.78805203    0.02000796       7
Ni    -1.74605423    0.03712365    1.76508988       8
Co     1.72863244    1.79663566    0.00150994       9
Co     1.75059499    0.02820252    1.75007197      10
Ni     1.74532787   -1.78109587    0.00018323      11
Cr     0.02827963    1.77719763   -1.74473490      12
Cr    -0.05845069   -1.84128512    1.73866957      13
Co    -1.78033402    0.00415543   -1.79274467      14
Co    -1.79836531   -1.76414361   -0.02972408      15
Co     1.76270588    0.01431908   -1.79402456      16
Cr     0.00394539   -1.77280643   -1.79303296      17
Co     0.00000000    0.00000000    0.00000000      18
          18
Lattice="  24.8920   0.0000   0.0000   0.0000  24.8920   0.0000   0.0000   0.0000  24.8920 " ConfE="      -5939.2710" DelE="          0.9218"
Ni    -0.04098311    0.03752103    3.46044274       1
Co    -0.01899280    3.50218013   -0.03111501       2
Cr    -3.64248135   -0.04859250   -0.04977065       3
Cr     3.61787926    0.01097950   -0.05284176       4
Co    -0.03304691   -3.51873838   -0.00881026       5
Co    -0.01635937    0.03983795   -3.56558238       6
Ni    -1.91537043    1.78756137   -0.01523013       7
Ni    -1.90732134    0.01094695    1.77800348       8
Co     1.96631513    1.82553842   -0.06948784       9
Co     1.98004616   -0.03709954    1.75724239      10
Ni     1.74578034   -1.72563278   -0.00504476      11
Cr     0.06360631    1.60055610   -1.55247871      12
Cr    -0.05218680   -1.65368198    1.63671457      13
Co    -1.76174350    0.01856013   -1.75839886      14
Co    -1.77291283   -1.71290497   -0.01756112      15
Co     1.77627947    0.01742307   -1.77297295      16
Cr    -0.00724638   -1.64838513   -1.69553676      17
Co     0.09280579    1.05762358    1.03699149      18
          18
Lattice="  24.8920   0.0000   0.0000   0.0000  24.8920   0.0000   0.0000   0.0000  24.8920 " ConfE="      -5939.5881" DelE="          0.6047"
Ni    -0.03726811    0.02303652    3.52272268       1
Co    -0.01768292    3.60733994   -0.05565147       2
Cr    -3.58999116   -0.03628279   -0.03062649       3
Cr     3.54850852    0.02447152   -0.01264493       4
Co    -0.03397096   -3.54133663   -0.01772262       5
Co    -0.01657137    0.03293082   -3.58771836       6
Ni    -1.78447474    1.76698465   -0.01541891       7
Ni    -1.75105620    0.01679910    1.72908216       8
Co     1.75539018    1.77576608   -0.03649459       9
Co     1.75615306    0.01024471    1.72594356      10
Ni     1.71550385   -1.73530797   -0.01384053      11
Cr     0.05242804    1.66009980   -1.64235888      12
Cr    -0.05349656   -1.76211020    1.68384077      13
Co    -1.75547305    0.00276368   -1.77454373      14
Co    -1.76819456   -1.73869223   -0.03460636      15
Co     1.74492707    0.01288908   -1.77960791      16
Cr    -0.01168648   -1.68708130   -1.73965019      17
Co     0.02403727    1.74938522    1.67457498      18
