          18
Lattice="  24.8920   0.0000   0.0000   0.0000  24.8920   0.0000   0.0000   0.0000  24.8920 " ConfE="      -5936.6315" DelE="          0.0000"
Cr    -0.02853106   -3.41719692   -0.02748891       1
Cr     3.37888339    0.01035822   -0.00441957       2
Co    -0.06516316    3.63871806   -0.06109721       3
Co    -3.64373866    0.05359811   -0.04129739       4
Ni    -0.08968387    0.07458122   -3.59436300       5
Cr    -0.05351853    0.05655044    3.46091682       6
Ni    -0.05949989   -1.69839557   -1.78735022       7
Co    -0.07253608   -1.69927594    1.66114926       8
Co     1.72036117    0.08262767   -1.78127928       9
Co     1.71148949    0.03235841    1.68891630      10
Cr    -1.91782284   -1.67798082   -0.01657297      11
Cr     1.68835323    1.83421129    0.01083101      12
Co    -1.82621105    1.82896932   -0.06290310      13
Ni    -1.85657709    0.08079617   -1.80493404      14
Co    -1.85335962    0.08517179    1.71888919      15
Ni    -0.04803253    1.83241420   -1.82338661      16
Ni    -0.07573253    1.86591743    1.73573019      17
Cr     0.00000000    0.00000000    0.00000000      18
          18
Lattice="  24.8920   0.0000   0.0000   0.0000  24.8920   0.0000   0.0000   0.0000  24.8920 " ConfE="      -5935.4132" DelE="          1.2184"
Cr    -0.11997273   -3.39732724   -0.05163589       1
Cr     3.40607390    0.08872289   -0.01435791       2
Co    -0.07431290    3.54553824   -0.05187269       3
Co    -3.54590760    0.08274984   -0.04199505       4
Ni    -0.09796021    0.08156476   -3.71549243       5
Cr    -0.06226203    0.08053650    3.64875728       6
Ni    -0.15015915   -1.66254532   -1.93223974       7
Co    -0.12050662   -1.68919832    1.82281337       8
Co     1.70586527    0.10396414   -1.91624797       9
Co     1.70414289    0.09026376    1.88481002      10
Cr    -1.83023314   -1.51715128   -0.02640852      11
Cr     1.56739670    1.74362112    0.02267711      12
Co    -1.12443673    1.16685772   -0.04791571      13
Ni    -1.89827455    0.10058901   -1.98105087      14
Co    -1.82702466    0.04284126    1.86933207      15
Ni    -0.00430622    1.82303376   -1.99945367      16
Ni    -0.01741038    1.84918598    1.91156691      17
Cr     0.82189122   -0.76521552   -0.01352345      18
          18
Lattice="  24.8920   0.0000   0.0000   0.0000  24.8920   0.0000   0.0000   0.0000  24.8920 " ConfE="      -5936.6946" DelE="         -0.0631"
Cr    -0.11997068   -3.46365347   -0.02087952       1
Cr     3.46728701    0.09254713   -0.00171117       2
Co    -0.09626971    3.64430810   -0.08096196       3
Co    -3.66058562    0.07665042   -0.03624599       4
Ni    -0.10844143    0.09510270   -3.58125470       5
Cr    -0.07157779    0.09404092    3.44811912       6
Ni    -0.10431523   -1.68540981   -1.79788479       7
Co    -0.10768795   -1.69835918    1.70783205       8
Co     1.71692635    0.10136279   -1.81033235       9
Co     1.70664719    0.07901530    1.74049647      10
Cr    -1.91390838   -1.68223211    0.00888542      11
Cr     1.71253794    1.80005086    0.00813567      12
Co    -0.04083429    0.06269669   -0.01394736      13
Ni    -1.87272899    0.14423173   -1.75448304      14
Co    -1.87132265    0.11844075    1.67484245      15
Ni    -0.08287661    1.85582689   -1.79660927      16
Ni    -0.11251591    1.88561823    1.68599621      17
Cr     1.70377811   -1.67437070   -0.00508918      18
