          18
Lattice="  24.8920   0.0000   0.0000   0.0000  24.8920   0.0000   0.0000   0.0000  24.8920 " ConfE="      -5925.3437" DelE="          0.0000"
Co    -0.05966128   -3.37628948    0.07079197       1
Cr     0.04956652    0.04746894   -3.38634956       2
Co    -0.02068167    0.01574412    3.64174334       3
Cr     0.03961231    3.66473248    0.14477954       4
Co    -3.59882628    0.06589119    0.09471603       5
Co     3.50199914    0.08129247    0.05771653       6
Ni    -1.74654059    0.06020229   -1.71271470       7
Ni     1.72946151   -1.68069668    0.05895798       8
Cr    -1.73580906   -1.67453435    0.06415763       9
Co     1.66794991    0.06785950   -1.69804789      10
Ni    -1.75362450    0.04301247    1.83453275      11
Ni    -1.77548099    1.83900470    0.06124907      12
Ni     1.74768875    0.07831153    1.84811165      13
Cr     0.00476694   -1.73827084    1.89059453      14
Co     0.01151938    1.89463256   -1.65668016      15
Co    -0.01724752    1.83001558    1.84710413      16
Cr     1.75320807    1.83238154    0.06116220      17
Cr     0.00000000    0.00000000    0.00000000      18
          18
Lattice="  24.8920   0.0000   0.0000   0.0000  24.8920   0.0000   0.0000   0.0000  24.8920 " ConfE="      -5924.7842" DelE="          0.5595"
Co    -0.03488604   -3.36328221    0.07763692       1
Cr    -0.00649572    0.05302129   -3.47518206       2
Co    -0.01727412    0.01028916    3.63450428       3
Cr     0.04297006    3.61942403    0.14042415       4
Co    -3.66487315    0.08927897    0.10147398       5
Co     3.57403210    0.07827070    0.07018419       6
Ni    -1.87573118    0.12488522   -1.73341205       7
Ni     1.88878006   -1.73055514    0.11889119       8
Cr    -1.87056465   -1.66284954    0.08958172       9
Co     1.82238366    0.09089325   -1.70362036      10
Ni    -1.70458817    0.02864339    1.77544660      11
Ni    -1.76991469    1.81523977    0.05543142      12
Ni     1.72016765    0.05931207    1.80001984      13
Cr     0.01486241   -1.75611411    1.84488454      14
Co     0.02468725    1.76724828   -1.63143696      15
Co    -0.01128108    1.82458177    1.81810915      16
Cr     1.67324121    1.73538080    0.03106318      17
Cr     0.00651668   -0.86099223   -0.84753285      18
          18
Lattice="  24.8920   0.0000   0.0000   0.0000  24.8920   0.0000   0.0000   0.0000  24.8920 " ConfE="      -5925.3254" DelE="          0.0183"
Co    -0.02710580   -3.46638074    0.10182040       1
Cr     0.02436771    0.08561690   -3.44969407       2
Co    -0.02329800    0.02582217    3.65972332       3
Cr     0.04453441    3.64963175    0.15187953       4
Co    -3.63570903    0.08160210    0.10630242       5
Co     3.54478916    0.08316134    0.06719199       6
Ni    -1.75949374    0.10079738   -1.67963379       7
Ni     1.73927362   -1.64842957    0.09611669       8
Cr    -1.72741670   -1.61720026    0.08410683       9
Co     1.68496990    0.07261625   -1.66978899      10
Ni    -1.73301899    0.06141473    1.82118459      11
Ni    -1.77388157    1.83566746    0.08076642      12
Ni     1.72387455    0.09702132    1.82658779      13
Cr    -0.00856655   -1.69720588    1.80335931      14
Co     0.03424559    1.82417947   -1.59811380      15
Co    -0.01226966    1.83933646    1.83595298      16
Cr     1.71858603    1.81992383    0.06355355      17
Cr    -0.00555318   -1.58709795   -1.55296298      18
