          18
Lattice="  24.8920   0.0000   0.0000   0.0000  24.8920   0.0000   0.0000   0.0000  24.8920 " ConfE="      -5937.7386" DelE="          0.0000"
Cr    -0.02781197    0.00026340    3.41401183       1
Co    -0.05807592    3.47490849   -0.06534738       2
Ni    -0.04766721   -0.05728868   -3.61446472       3
Ni    -0.02306901   -3.62888295   -0.07875789       4
Co    -3.59619924   -0.01865236   -0.05033963       5
Co     3.52976604   -0.06766634   -0.09037070       6
Cr    -1.71928106    0.06131660    1.63461903       7
Cr     1.67463657    0.00979737    1.66968174       8
Co    -1.74352373    1.73001161    0.03327618       9
Cr     1.72984962    1.78204909   -0.05667815      10
Co    -0.02212971   -1.82869423    1.69951066      11
Ni    -0.03301718    1.72815550   -1.85028669      12
Cr    -0.08117989   -1.84160097   -1.85349165      13
Ni    -1.79592770   -1.80717755   -0.06653662      14
Ni     1.73703329   -1.83566567   -0.09713443      15
Co    -1.77210256   -0.05729699   -1.79432366      16
Ni     1.72560447   -0.05094813   -1.83920021      17
Co     0.00000000    0.00000000    0.00000000      18
          18
Lattice="  24.8920   0.0000   0.0000   0.0000  24.8920   0.0000   0.0000   0.0000  24.8920 " ConfE="      -5937.3987" DelE="          0.3399"
Cr    -0.04054966    0.02484187    3.33490418       1
Co    -0.05026712    3.44506828   -0.04702354       2
Ni    -0.04918099   -0.04858944   -3.62048088       3
Ni    -0.02589663   -3.62516976   -0.06889051       4
Co    -3.63634095   -0.02022871   -0.05966806       5
Co     3.55903811   -0.07662827   -0.09402822       6
Cr    -1.88987470    0.00857910    1.66525303       7
Cr     1.85037843   -0.07080109    1.76679607       8
Co    -1.87768260    1.77585987   -0.03376452       9
Cr     1.85627238    1.82788570   -0.11188696      10
Co    -0.02564637   -1.76690097    1.68053634      11
Ni    -0.03238405    1.71589584   -1.81117995      12
Cr    -0.08771643   -1.79674447   -1.80837175      13
Ni    -1.79450795   -1.78747837   -0.04898553      14
Ni     1.71076162   -1.79571330   -0.07855392      15
Co    -1.73061150   -0.05526271   -1.74069236      16
Ni     1.70469459   -0.04090990   -1.80172479      17
Co     0.03762313    0.54471884    0.54175851      18
          18
Lattice="  24.8920   0.0000   0.0000   0.0000  24.8920   0.0000   0.0000   0.0000  24.8920 " ConfE="      -5937.9478" DelE="         -0.2092"
Cr    -0.01744146   -0.04901840    3.47738229       1
Co    -0.06504822    3.50752207   -0.09021174       2
Ni    -0.04615811   -0.05460368   -3.63383203       3
Ni    -0.02584702   -3.64403632   -0.08162733       4
Co    -3.61596268   -0.03361975   -0.06046625       5
Co     3.54464869   -0.07445789   -0.10427191       6
Cr    -1.72049981    0.00801782    1.59515488       7
Cr     1.67967156   -0.04069446    1.62351343       8
Co    -1.75931832    1.67373364   -0.01755943       9
Cr     1.73712379    1.76198674   -0.07680236      10
Co    -0.01705864   -1.75703899    1.65569169      11
Ni    -0.03052940    1.70613467   -1.81074282      12
Cr    -0.09974104   -1.84683710   -1.87219344      13
Ni    -1.78032419   -1.80637116   -0.07284327      14
Ni     1.70251117   -1.81737838   -0.12126093      15
Co    -1.72762806   -0.09061610   -1.77946661      16
Ni     1.68386801   -0.05323302   -1.80940027      17
Co     0.00724233    1.64676372    1.65889506      18
