          18
Lattice="  24.8920   0.0000   0.0000   0.0000  24.8920   0.0000   0.0000   0.0000  24.8920 " ConfE="      -5940.1438" DelE="          0.0000"
Ni    -3.50282461   -0.01550103    0.02478792       1
Cr    -0.01652096    3.47547155   -0.01005684       2
Cr     3.53763159   -0.04277628   -0.01663638       3
Ni    -0.01411856   -3.59409965    0.00572008       4
Ni    -0.00269611   -0.02568519   -3.56917586       5
Cr     0.04625266   -0.01550487    3.47011723       6
Cr    -1.74630723   -0.00000021   -1.69836639       7
Co    -1.72635114   -0.01580714    1.74935444       8
Co    -0.02029988    1.77742313   -1.73052356       9
Cr    -0.09325244    1.71810412    1.65978043      10
Co    -1.76268683   -1.82071413    0.01217959      11
Cr     1.79301049    1.72703648   -0.01558374      12
Ni     1.78591057   -1.83918490   -0.01370213      13
Co    -0.01197152   -1.79022248   -1.76162540      14
Cr     0.01308720   -1.81202792    1.77016529      15
Cr     1.76341143   -0.03761357   -1.81431977      16
Co     1.78541739   -0.00685423    1.71996565      17
Co     0.00000000    0.00000000    0.00000000      18
          18
Lattice="  24.8920   0.0000   0.0000   0.0000  24.8920   0.0000   0.0000   0.0000  24.8920 " ConfE="      -5939.3707" DelE="          0.7731"
Ni    -3.48289894   -0.03327236    0.03395990       1
Cr    -0.01061767    3.48298461    0.00044882       2
Cr     3.53446185   -0.01808589   -0.01651989       3
Ni    -0.02039638   -3.59397172    0.00633890       4
Ni     0.01509033   -0.04047330   -3.64427463       5
Cr     0.05023419   -0.06673680    3.55530511       6
Cr    -1.71827252   -0.08694492   -1.85260735       7
Co    -1.73603401   -0.07770164    1.87151477       8
Co     0.08971580    1.82286514   -1.96671249       9
Cr     0.00436674    1.75275963    1.86831429      10
Co    -1.70939692   -1.74720515    0.02221059      11
Cr     1.66135006    1.68357300   -0.01987998      12
Ni     1.74651742   -1.80323454   -0.00739946      13
Co    -0.01311169   -1.73920683   -1.74166412      14
Cr    -0.05466101   -1.73669885    1.72661499      15
Cr     1.68069873   -0.02287079   -1.78095461      16
Co     1.71661641    0.00106319    1.68650213      17
Co    -0.99500054    1.05946930   -0.05299521      18
          18
Lattice="  24.8920   0.0000   0.0000   0.0000  24.8920   0.0000   0.0000   0.0000  24.8920 " ConfE="      -5939.8586" DelE="          0.2852"
Ni    -3.54529728   -0.04273053    0.02750500       1
Cr     0.02308561    3.54218191    0.00463502       2
Cr     3.56257119   -0.03525894   -0.02102870       3
Ni    -0.01508202   -3.59580097    0.00908702       4
Ni     0.00243215   -0.03587833   -3.60391113       5
Cr     0.05887688   -0.03071579    3.51814588       6
Cr    -1.70414871   -0.05004651   -1.69965384       7
Co    -1.68812763   -0.04569938    1.73189867       8
Co     0.03650932    1.73873263   -1.75659591       9
Cr    -0.03784264    1.67303976    1.67483238      10
Co    -1.73752254   -1.78264284    0.00837722      11
Cr     1.72845193    1.68627308   -0.03308961      12
Ni     1.76263596   -1.81441717   -0.01362625      13
Co    -0.01182775   -1.74237209   -1.73283666      14
Cr    -0.00985370   -1.75582325    1.74497698      15
Cr     1.73372384   -0.04383743   -1.79663965      16
Co     1.73782696   -0.00563341    1.67208003      17
Co    -1.69518188    1.72662308   -0.01927774      18
