          18
Lattice="  24.8920   0.0000   0.0000   0.0000  24.8920   0.0000   0.0000   0.0000  24.8920 " ConfE="      -5932.5192" DelE="          0.0000"
Ni     0.03198819   -3.52109218    0.01800264       1
Co    -3.50952682    0.08141588    0.00643780       2
Co     0.01176300    3.67892973    0.02594913       3
Cr     3.56506114    0.03550991   -0.00230635       4
Cr     0.02004070    0.04654442    3.54969489       5
Cr     0.04241410    0.04563906   -3.56897626       6
Co    -1.75055321    0.06101428    1.79594077       7
Co    -1.71127688    0.04733523   -1.75546342       8
Co    -0.00582299   -1.73931256    1.77229244       9
Cr    -0.03820561   -1.74820701   -1.65826922      10
Cr    -1.70208502    1.81384403    0.02186543      11
Co     1.82184039   -1.70384595    0.02321931      12
Cr     1.75394682    1.84783395    0.03475466      13
Cr     1.71678057    0.04205086    1.78947860      14
Cr     1.77935865    0.02836535   -1.73828507      15
Co     0.03880689    1.87026281    1.78801511      16
Cr     0.03762611    1.88810934   -1.75595957      17
Co     0.00000000    0.00000000    0.00000000      18
          18
Lattice="  24.8920   0.0000   0.0000   0.0000  24.8920   0.0000   0.0000   0.0000  24.8920 " ConfE="      -5931.6949" DelE="          0.8243"
Ni     0.05852404   -3.51327467    0.03797530       1
Co    -3.44266017    0.07265569   -0.01328713       2
Co    -0.01374162    3.69025161    0.02468553       3
Cr     3.57157617    0.02988427    0.02079559       4
Cr     0.04763094    0.07547027    3.64658213       5
Cr     0.08126846    0.04007392   -3.65090359       6
Co    -1.72534692    0.09438721    1.91163433       7
Co    -1.72141328    0.11759956   -1.92451173       8
Co     0.03368196   -1.75966235    1.93055763       9
Cr     0.08502823   -1.75529889   -1.85047589      10
Cr    -1.50046652    1.61079621    0.02217077      11
Co     1.69401409   -1.64084756    0.04245850      12
Cr     1.62515321    1.83775924    0.05247578      13
Cr     1.56398123    0.03870214    1.68604077      14
Cr     1.70485476    0.05137058   -1.59710535      15
Co     0.01863971    1.89580643    1.84071575      16
Cr     0.02560365    1.86832598   -1.79413465      17
Co    -1.05662098   -1.10234707   -0.05544276      18
          18
Lattice="  24.8920   0.0000   0.0000   0.0000  24.8920   0.0000   0.0000   0.0000  24.8920 " ConfE="      -5932.1098" DelE="          0.4094"
Ni     0.05321376   -3.55229527    0.02260035       1
Co    -3.52821916    0.09473363   -0.00551992       2
Co     0.00522877    3.69300641    0.03175336       3
Cr     3.60587698    0.04156500    0.01419621       4
Cr     0.04085812    0.04224361    3.59105471       5
Cr     0.05537282    0.04374331   -3.60391996       6
Co    -1.72077522    0.08385340    1.79500833       7
Co    -1.66671122    0.07177607   -1.73952843       8
Co     0.02267456   -1.70881048    1.77564069       9
Cr    -0.00295633   -1.71268406   -1.65664861      10
Cr    -1.57220754    1.70794543    0.04585833      11
Co     1.75773155   -1.66069800    0.01965481      12
Cr     1.65206389    1.82348792    0.04618093      13
Cr     1.65100294    0.03690939    1.70451383      14
Cr     1.74104616    0.03964161   -1.63154683      15
Co     0.03985316    1.86919807    1.81341352      16
Cr     0.02907841    1.87018066   -1.76669165      17
Co    -1.70573919   -1.67924291    0.01700233      18
