          18
Lattice="  24.8920   0.0000   0.0000   0.0000  24.8920   0.0000   0.0000   0.0000  24.8920 " ConfE="      -5945.0005" DelE="          0.0000"
Ni    -0.03304203   -0.01240041   -3.49220521       1
Cr     3.49420614    0.02810675   -0.03045201       2
Ni    -0.05235591    0.01580640    3.63060148       3
Ni    -3.58006144    0.04044792    0.04309792       4
Cr    -0.05858124   -3.46196586    0.01011960       5
Co    -0.05145587    3.54770488    0.02076668       6
Co    -0.03627465   -1.81883077   -1.68231346       7
Ni    -0.01280563    1.74679495   -1.75739966       8
Ni     1.74425956   -1.72520849    0.05187662       9
Cr     1.68398012    1.80911004    0.08002819      10
Ni    -1.82896225   -0.01123924   -1.74864283      11
Cr     1.74139262    0.04941539    1.88773459      12
Co    -1.82601986    0.03536438    1.82860608      13
Co    -1.80914358   -1.76977077    0.09166888      14
Cr    -1.73235506    1.80107012    0.02912701      15
Cr    -0.08642109   -1.71583303    1.77689076      16
Co    -0.02919466    1.76398967    1.82529788      17
Ni     0.00000000    0.00000000    0.00000000      18
          18
Lattice="  24.8920   0.0000   0.0000   0.0000  24.8920   0.0000   0.0000   0.0000  24.8920 " ConfE="      -5944.2845" DelE="          0.7160"
Ni    -0.01964348   -0.01176263   -3.45130929       1
Cr     3.50970288    0.01305873   -0.01691836       2
Ni    -0.03627493    0.00848700    3.61840617       3
Ni    -3.57751528    0.03378310    0.04503407       4
Cr    -0.07026355   -3.53017127    0.01609577       5
Co    -0.07708900    3.61798695    0.02317020       6
Co    -0.06028523   -1.90689787   -1.67576971       7
Ni    -0.10040279    1.91080460   -1.80946031       8
Ni     1.77420560   -1.88738372    0.09902099       9
Cr     1.60145344    2.00356839    0.15138949      10
Ni    -1.76513985   -0.00228454   -1.70129519      11
Cr     1.69236106    0.02641297    1.74617828      12
Co    -1.77904635    0.02603003    1.78738828      13
Co    -1.74513210   -1.74617298    0.08776279      14
Cr    -1.64420233    1.73149913    0.05373917      15
Cr    -0.08943842   -1.67473258    1.68820043      16
Co    -0.02982807    1.74651086    1.78436868      17
Ni     1.06908357    0.06447175   -0.97943004      18
          18
Lattice="  24.8920   0.0000   0.0000   0.0000  24.8920   0.0000   0.0000   0.0000  24.8920 " ConfE="      -5944.7030" DelE="          0.2975"
Ni    -0.05207926   -0.00480077   -3.52046442       1
Cr     3.56017641    0.05386464    0.03158754       2
Ni    -0.05275783    0.01728072    3.64692917       3
Ni    -3.58547825    0.03494546    0.04525365       4
Cr    -0.07105758   -3.49865992    0.01852744       5
Co    -0.06376302    3.58276185    0.02194181       6
Co    -0.05242809   -1.80555248   -1.64788594       7
Ni    -0.05510016    1.75521796   -1.73348962       8
Ni     1.69799110   -1.71362262    0.09013218       9
Cr     1.59155818    1.79620828    0.08895101      10
Ni    -1.79512429   -0.01035671   -1.71680708      11
Cr     1.70255178    0.04320463    1.83550316      12
Co    -1.78751750    0.02763997    1.80024007      13
Co    -1.76030543   -1.74194221    0.09682686      14
Cr    -1.68271378    1.74744320    0.06411188      15
Cr    -0.12223883   -1.67312185    1.73028110      16
Co    -0.02705370    1.73287298    1.78271394      17
Ni     1.69773521    0.01558861   -1.66040536      18
