          18
Lattice="  24.8920   0.0000   0.0000   0.0000  24.8920   0.0000   0.0000   0.0000  24.8920 " ConfE="      -5934.7081" DelE="          0.0000"
Cr    -0.04938736    0.03560677    3.49703010       1
Co    -3.49156191    0.01221723   -0.03573689       2
Ni     0.07222312   -0.00669424   -3.59343662       3
Ni     3.62427385   -0.03220751   -0.05103338       4
Cr     0.03756311   -3.56625449   -0.04142875       5
Cr    -0.01706145    3.50139430   -0.03662608       6
Co     0.00382314   -1.76989439    1.78466270       7
Ni     0.01521232    1.74735852    1.73458000       8
Ni    -1.70113584   -1.78851949   -0.03467103       9
Co    -1.79626117    1.76369206    0.01573714      10
Ni     1.84271962   -0.01569991    1.74879872      11
Ni    -1.72113177   -0.00364133   -1.83164588      12
Ni     1.84410857   -0.01662745   -1.81703351      13
Co     1.85929399   -1.82029974    0.00864406      14
Ni     1.82507169    1.74435625   -0.03935561      15
Ni     0.06991274   -1.77335143   -1.80497024      16
Co     0.04214135    1.80114049   -1.82011910      17
Ni     0.00000000    0.00000000    0.00000000      18
          18
Lattice="  24.8920   0.0000   0.0000   0.0000  24.8920   0.0000   0.0000   0.0000  24.8920 " ConfE="      -5934.2649" DelE="          0.4432"
Cr    -0.06396869    0.05227200    3.42542132       1
Co    -3.47526186    0.01294654   -0.03072995       2
Ni     0.06838092   -0.01280531   -3.58436321       3
Ni     3.61513571   -0.02684251   -0.04392057       4
Cr     0.04985646   -3.62007265   -0.04744597       5
Cr    -0.00996848    3.58760604   -0.04615085       6
Co     0.04870120   -1.91875245    1.80352072       7
Ni     0.07934636    1.92491287    1.77834710       8
Ni    -1.72385106   -1.90422199   -0.06599092       9
Co    -1.82572374    1.90574995   -0.02047995      10
Ni     1.78465365   -0.00445431    1.72298968      11
Ni    -1.68005774   -0.00471386   -1.75929902      12
Ni     1.82356595   -0.01261297   -1.79108765      13
Co     1.83859108   -1.82082717    0.01844311      14
Ni     1.78257660    1.74735613   -0.03319120      15
Ni     0.07516664   -1.77209495   -1.76853945      16
Co     0.03394032    1.80063237   -1.79114155      17
Ni    -0.56456410    0.02753877    0.62702713      18
          18
Lattice="  24.8920   0.0000   0.0000   0.0000  24.8920   0.0000   0.0000   0.0000  24.8920 " ConfE="      -5935.0691" DelE="         -0.3610"
Cr     0.01902807    0.03774501    3.56362126       1
Co    -3.52673841    0.00732599   -0.07068376       2
Ni     0.08146755   -0.00816310   -3.60072414       3
Ni     3.62912488   -0.02594207   -0.05234003       4
Cr     0.05237637   -3.60759194   -0.05463625       5
Cr    -0.00763917    3.57690580   -0.03895787       6
Co     0.05847954   -1.79106058    1.75311473       7
Ni     0.03954990    1.76998762    1.70925624       8
Ni    -1.65959981   -1.78271341   -0.04978425       9
Co    -1.74088939    1.79196601   -0.04235076      10
Ni     1.79520790   -0.00794124    1.71877831      11
Ni    -1.67589657    0.00032525   -1.78513862      12
Ni     1.83940497   -0.01039948   -1.80468760      13
Co     1.86743905   -1.82252578    0.00877511      14
Ni     1.78875016    1.73462555   -0.04587135      15
Ni     0.09469136   -1.75331591   -1.77218090      16
Co     0.05842839    1.80424241   -1.81850851      17
Ni    -1.67734153    0.00350099    1.68660334      18
