          18
Lattice="  24.8920   0.0000   0.0000   0.0000  24.8920   0.0000   0.0000   0.0000  24.8920 " ConfE="      -5937.5635" DelE="          0.0000"
Ni    -0.01140953    0.03915463   -3.47076616       1
Ni     0.03336458   -3.44024113    0.02384998       2
Co     0.04603215    3.61592736    0.05333847       3
Cr    -0.04262007    0.10395113    3.64605310       4
Co     3.57505226    0.02961642    0.04961895       5
Co    -3.58829644    0.05519125    0.02251064       6
Ni     1.76015008   -0.01894890   -1.70852606       7
Ni    -1.74960967   -1.73024433    0.02921627       8
Ni     0.00293729   -1.70783690    1.89247032       9
Cr    -1.68189043    0.08429920   -1.63833656      10
Cr     1.83258626   -1.75031094    0.08574381      11
Ni     1.75694154    0.03874033    1.84142277      12
Ni    -1.76779895    0.04658867    1.79387208      13
Co     0.04781710    1.86695747   -1.71000927      14
Co    -0.01131844    1.82485833    1.79823742      15
Co    -1.76251826    1.82921006    0.01264720      16
Cr     1.76490482    1.73984726    0.07192861      17
Co     0.00000000    0.00000000    0.00000000      18
          18
Lattice="  24.8920   0.0000   0.0000   0.0000  24.8920   0.0000   0.0000   0.0000  24.8920 " ConfE="      -5937.0749" DelE="          0.4886"
Ni     0.00586507    0.04070354   -3.44539950       1
Ni     0.02943583   -3.43469295    0.02758660       2
Co     0.04270845    3.61740836    0.04387099       3
Cr    -0.04489625    0.09487851    3.64975777       4
Co     3.62252532    0.04562162    0.06152381       5
Co    -3.63231718    0.06091982    0.03482249       6
Ni     1.95087355    0.09429512   -1.77394819       7
Ni    -1.87755017   -1.77795188    0.10194889       8
Ni     0.00518459   -1.68928241    1.83622144       9
Cr    -1.75018097    0.11397496   -1.62230714      10
Cr     1.97772899   -1.74706292    0.12176603      11
Ni     1.73859528    0.04122724    1.80915407      12
Ni    -1.74476684    0.04994786    1.75129545      13
Co     0.05997809    1.76609468   -1.63783024      14
Co    -0.00588187    1.81194991    1.77126600      15
Co    -1.76037240    1.80476422    0.00877165      16
Cr     1.71266877    1.69378849    0.06948174      17
Co     0.10490672   -0.88772229   -0.77811355      18
          18
Lattice="  24.8920   0.0000   0.0000   0.0000  24.8920   0.0000   0.0000   0.0000  24.8920 " ConfE="      -5937.5708" DelE="         -0.0074"
Ni    -0.00253019    0.05281452   -3.50181563       1
Ni     0.01685349   -3.50414858    0.07152454       2
Co     0.04146147    3.63231789    0.05019197       3
Cr    -0.03941624    0.10786274    3.66322209       4
Co     3.59240214    0.03843673    0.05308883       5
Co    -3.60422797    0.05723112    0.02647941       6
Ni     1.75568472    0.02380127   -1.66304683       7
Ni    -1.74517050   -1.70518993    0.05899663       8
Ni     0.00712047   -1.69118122    1.85991962       9
Cr    -1.65660757    0.10055336   -1.61417713      10
Cr     1.81729432   -1.74398647    0.10041800      11
Ni     1.72962686    0.04750751    1.80314900      12
Ni    -1.73773913    0.05951927    1.76926003      13
Co     0.03902910    1.81494553   -1.66651469      14
Co    -0.00154350    1.82049551    1.77193378      15
Co    -1.74208539    1.79844956    0.00638356      16
Cr     1.74609888    1.76110028    0.08502130      17
Co     0.02599289   -1.71048371   -1.63565728      18
