          18
Lattice="  24.8920   0.0000   0.0000   0.0000  24.8920   0.0000   0.0000   0.0000  24.8920 " ConfE="      -5941.1379" DelE="          0.0000"
Ni     0.00360210    0.02223949    3.49935518       1
Cr     0.03258638   -3.52062395    0.11574971       2
Cr     0.05187453    0.06725649   -3.62407803       3
Cr     0.06911273    3.59055932   -0.07496491       4
Co    -3.47355722    0.03058241   -0.06618817       5
Co     3.53217082    0.01651220   -0.04462676       6
Ni    -1.75188930    0.03507172    1.74827275       7
Cr     1.72371897    0.03718266    1.73137323       8
Co    -1.66221683   -1.81678761   -0.05305971       9
Cr     1.74250122   -1.80466007   -0.02430684      10
Co    -0.00285306    1.86653733    1.72663367      11
Cr     0.02007567   -1.78368828   -1.81689078      12
Cr     0.04174577    1.82208414   -1.85614201      13
Ni    -1.73424270    1.83962726   -0.02715499      14
Cr     1.75311510    1.81668446   -0.05249238      15
Cr    -1.73241010    0.01179896   -1.77744075      16
Co     1.76436425    0.01926198   -1.80389314      17
Ni     0.00000000    0.00000000    0.00000000      18
          18
Lattice="  24.8920   0.0000   0.0000   0.0000  24.8920   0.0000   0.0000   0.0000  24.8920 " ConfE="      -5940.3844" DelE="          0.7534"
Ni    -0.00644571    0.00391153    3.48129305       1
Cr     0.04769969   -3.56621959    0.08596951       2
Cr     0.07354663    0.06498394   -3.65001998       3
Cr     0.07326681    3.60061573   -0.06395987       4
Co    -3.51160999    0.04277623   -0.06883400       5
Co     3.56276677    0.03697531   -0.03782912       6
Ni    -1.83097225    0.08404733    1.75162040       7
Cr     1.83776752    0.13724386    1.80459546       8
Co    -1.83340260   -1.82566417   -0.16577831       9
Cr     1.95094763   -1.87275140   -0.10776319      10
Co     0.02108071    1.80374391    1.70022378      11
Cr     0.04320760   -1.69713616   -1.66921361      12
Cr     0.05295526    1.75709028   -1.81341330      13
Ni    -1.69496735    1.80625270   -0.02306929      14
Cr     1.68936830    1.76833761   -0.00440268      15
Cr    -1.67069198   -0.00630772   -1.67905259      16
Co     1.71755554    0.00909720   -1.72564038      17
Ni     0.06777309   -1.15803930    1.05336189      18
          18
Lattice="  24.8920   0.0000   0.0000   0.0000  24.8920   0.0000   0.0000   0.0000  24.8920 " ConfE="      -5940.9034" DelE="          0.2345"
Ni     0.00383667    0.03997987    3.55102813       1
Cr     0.06347223   -3.61591875   -0.00319942       2
Cr     0.05871376    0.07387569   -3.67944291       3
Cr     0.07532359    3.60764021   -0.07706435       4
Co    -3.48944083    0.04254670   -0.06576036       5
Co     3.55924390    0.02661573   -0.05991252       6
Ni    -1.73907729    0.05268787    1.72338374       7
Cr     1.67174528    0.06113444    1.64847222       8
Co    -1.65716901   -1.75501134   -0.10895740       9
Cr     1.74197494   -1.77000629   -0.05534671      10
Co     0.03921718    1.78817206    1.68867566      11
Cr     0.00639026   -1.70436831   -1.76274776      12
Cr     0.03701706    1.78065247   -1.85191129      13
Ni    -1.68589266    1.81478656   -0.03538559      14
Cr     1.69568203    1.77978130   -0.05571988      15
Cr    -1.68096067    0.02231847   -1.73861933      16
Co     1.70751423    0.02073634   -1.75481365      17
Ni    -0.00394176   -1.73492243    1.73020695      18
