          18
Lattice="  24.8920   0.0000   0.0000   0.0000  24.8920   0.0000   0.0000   0.0000  24.8920 " ConfE="      -5945.4013" DelE="          0.0000"
Ni    -0.06101275   -3.46706415    0.01451794       1
Ni     3.50156098    0.05653517   -0.01961028       2
Ni    -0.02834921    3.60279947   -0.03744737       3
Co     0.04419020    0.01574715    3.49573983       4
Co    -3.58689178    0.02376069   -0.01539895       5
Co    -0.02846100    0.05228972   -3.60293337       6
Ni    -1.75705595    0.04988754    1.75555288       7
Co    -1.77867531   -1.71100122    0.01265805       8
Ni    -1.78804376    0.05526461   -1.79525794       9
Co     1.66683344   -1.66367833    0.07240481      10
Ni    -1.78840103    1.82272239   -0.01692950      11
Ni    -0.01721184    1.84824803    1.77099391      12
Cr     1.70126249   -0.03137653    1.81100143      13
Ni     1.73333689    1.82474222   -0.00285645      14
Cr     0.00058593   -1.69026252   -1.80488056      15
Co     0.02670766    1.77679159   -1.78656634      16
Cr     1.73286914    0.05860317   -1.85133364      17
Cr     0.00000000    0.00000000    0.00000000      18
          18
Lattice="  24.8920   0.0000   0.0000   0.0000  24.8920   0.0000   0.0000   0.0000  24.8920 " ConfE="      -5944.5869" DelE="          0.8144"
Ni    -0.04558518   -3.42213860    0.00948256       1
Ni     3.53857824    0.06471482   -0.02000206       2
Ni    -0.02715625    3.59528423   -0.03040836       3
Co     0.02809308    0.00976648    3.45916809       4
Co    -3.66315378    0.02636295   -0.04303336       5
Co    -0.02648496    0.04405158   -3.61735919       6
Ni    -1.92368467    0.09874494    1.78228065       7
Co    -1.86629133   -1.70052976   -0.01396046       8
Ni    -1.77206443    0.04027030   -1.76349004       9
Co     1.83900666   -1.73042778   -0.00383650      10
Ni    -1.78808208    1.78967717   -0.00646593      11
Ni    -0.03344030    1.78887256    1.75560580      12
Cr     1.84587837    0.06142118    1.83276835      13
Ni     1.71783367    1.77958722    0.02249967      14
Cr     0.00765295   -1.64993576   -1.78105101      15
Co     0.04604074    1.70837577   -1.73925356      16
Cr     1.67036102    0.04905006   -1.76094275      17
Cr     0.01059860   -0.75591057    0.84011919      18
          18
Lattice="  24.8920   0.0000   0.0000   0.0000  24.8920   0.0000   0.0000   0.0000  24.8920 " ConfE="      -5945.2408" DelE="          0.1605"
Ni    -0.04515924   -3.50728572   -0.01655551       1
Ni     3.51691539    0.06705998   -0.02892614       2
Ni    -0.02786803    3.61224405   -0.03712709       3
Co     0.00871038    0.05934920    3.56547898       4
Co    -3.62001717    0.02499269   -0.02706666       5
Co    -0.02993031    0.05059318   -3.64082316       6
Ni    -1.76465113    0.07076299    1.72620294       7
Co    -1.76495610   -1.69152312   -0.02002305       8
Ni    -1.75913004    0.05515025   -1.78162792       9
Co     1.64237073   -1.61834589    0.04706099      10
Ni    -1.78177289    1.82180340   -0.02310683      11
Ni    -0.01457583    1.79889383    1.75051928      12
Cr     1.73392325    0.03752511    1.80343964      13
Ni     1.72356902    1.81261191   -0.00783484      14
Cr     0.04084481   -1.61126558   -1.72700540      15
Co     0.04363805    1.74863605   -1.77642370      16
Cr     1.69712805    0.09892859   -1.84288068      17
Cr    -0.00979794   -1.66871692    1.75405983      18
