          18
Lattice="  24.8920   0.0000   0.0000   0.0000  24.8920   0.0000   0.0000   0.0000  24.8920 " ConfE="      -5934.6144" DelE="          0.0000"
Co    -0.02803368    0.05937709    3.52996112       1
Ni     0.02377192    0.01918857   -3.61511184       2
Cr    -3.47978112   -0.07491788   -0.09802955       3
Cr     0.05256772   -3.52370607   -0.06877923       4
Cr     0.00653067    3.54509526   -0.02840780       5
Co     3.57195500    0.08395353   -0.02453830       6
Ni    -0.00383004   -1.75853167    1.76400074       7
Ni     1.79429869    0.03591829    1.75777381       8
Co    -1.75277317   -1.77427888   -0.04899197       9
Co    -1.78058761    1.75319287   -0.01879439      10
Co    -0.02939846    1.77005270    1.72721236      11
Ni     1.82181976   -1.75519711   -0.01956687      12
Cr    -1.73362431    0.03055502   -1.84464760      13
Cr     0.03939427    1.78500320   -1.79739519      14
Co     1.79201229    0.04215627   -1.80448649      15
Cr     0.11404204   -1.77660655   -1.83204925      16
Cr     1.77744223    1.80093127   -0.06117970      17
Ni     0.00000000    0.00000000    0.00000000      18
          18
Lattice="  24.8920   0.0000   0.0000   0.0000  24.8920   0.0000   0.0000   0.0000  24.8920 " ConfE="      -5929.9767" DelE="          4.6377"
Co    -0.01766112    0.05092101    3.53038770       1
Ni     0.03404924    0.00360929   -3.50908840       2
Cr    -3.46358866   -0.09000630   -0.04964111       3
Cr     0.04737449   -3.53327568   -0.03601704       4
Cr    -0.00454235    3.49887739   -0.04409338       5
Co     3.51120888    0.04815193   -0.05643686       6
Ni     0.00441770   -1.73661958    1.74329901       7
Ni     1.82694761    0.01354103    1.78467388       8
Co    -2.00621072   -2.00633891    0.36389183       9
Co    -1.86953199    1.68975660   -0.09146712      10
Co    -0.00306377    1.63744132    1.53439784      11
Ni     1.91054554   -1.92271012    0.10956419      12
Cr    -2.12481891    0.81676789   -2.32360711      13
Cr     0.09163164    1.82310889   -1.79146044      14
Co     0.87888124    0.10009562   -0.52901258      15
Cr     0.65470881   -2.05033153   -1.86082174      16
Cr     2.00344341    1.92267984   -0.02143428      17
Ni    -1.14144732   -0.84478085   -1.30789116      18
          18
Lattice="  24.8920   0.0000   0.0000   0.0000  24.8920   0.0000   0.0000   0.0000  24.8920 " ConfE="      -5934.8229" DelE="         -0.2085"
Co    -0.02379353    0.05352867    3.53777705       1
Ni     0.00784992    0.00058291   -3.61273703       2
Cr    -3.47484653   -0.07307783   -0.06117640       3
Cr     0.05430797   -3.52217763   -0.04302491       4
Cr     0.00316575    3.52603532   -0.03223243       5
Co     3.57173627    0.07244900   -0.03300335       6
Ni    -0.01265825   -1.72565030    1.75534946       7
Ni     1.78582705    0.02757337    1.73945910       8
Co    -1.76795286   -1.75007951   -0.01516760       9
Co    -1.79407869    1.75762243   -0.01555262      10
Co    -0.03291180    1.74338347    1.71488664      11
Ni     1.80997791   -1.74261007   -0.03029394      12
Cr    -1.78738645    0.02774132   -1.84256875      13
Cr     0.00754111    1.75451538   -1.79827911      14
Co    -0.01510523    0.04283164   -0.07921898      15
Cr     1.87069080   -0.01264650   -1.87030756      16
Cr     1.74918491    1.77585926   -0.05979393      17
Ni     0.03773193   -1.76106511   -1.80342841      18
