          18
Lattice="  24.8920   0.0000   0.0000   0.0000  24.8920   0.0000   0.0000   0.0000  24.8920 " ConfE="      -5925.3990" DelE="          0.0000"
Co     0.03782537   -3.40722428   -0.01675939       1
Ni     3.49898004    0.00920489    0.00056775       2
Co     0.01973729    3.59014203    0.03980790       3
Ni    -3.56797138    0.05219020   -0.00106406       4
Cr    -0.02109726    0.06135380   -3.60428606       5
Cr     0.01120526   -0.03320307    3.54636843       6
Cr     0.05996444   -1.77381140   -1.68070812       7
Co    -0.01697018   -1.71524468    1.79899072       8
Co     1.69005647    0.01169268   -1.75969828       9
Ni     1.76184702    0.00504294    1.75908619      10
Ni    -1.81014234   -1.72850529   -0.00528513      11
Co     1.72865279    1.83251226    0.01130610      12
Ni    -1.76628141    1.81256463   -0.01476011      13
Ni    -1.74842369    0.01786121   -1.81455173      14
Cr    -1.77876613    0.05953426    1.78287974      15
Cr     0.02870043    1.81269513   -1.76799466      16
Cr     0.01197734    1.75301780    1.77048056      17
Ni     0.00000000    0.00000000    0.00000000      18
          18
Lattice="  24.8920   0.0000   0.0000   0.0000  24.8920   0.0000   0.0000   0.0000  24.8920 " ConfE="      -5924.7216" DelE="          0.6774"
Co     0.03339233   -3.42836846   -0.00675688       1
Ni     3.45480151   -0.00431940   -0.00345546       2
Co     0.03160709    3.60758988    0.04433918       3
Ni    -3.55260916    0.04469242    0.00456716       4
Cr    -0.02249533    0.09717005   -3.66400907       5
Cr     0.01043394   -0.00646254    3.61011425       6
Cr    -0.04991478   -1.74951724   -1.93293014       7
Co    -0.05060498   -1.78443311    2.01774280       8
Co     1.70298860    0.08635078   -1.88272683       9
Ni     1.79561888    0.04625928    1.88939302      10
Ni    -1.72114536   -1.69822993   -0.00353077      11
Co     1.68156884    1.76110958    0.00775248      12
Ni    -1.71808373    1.77334678   -0.01636458      13
Ni    -1.72812862    0.04011336   -1.81671332      14
Cr    -1.69539753    0.02804954    1.76093524      15
Cr     0.07970977    1.74763490   -1.69694823      16
Cr     0.02854521    1.69688013    1.70308310      17
Ni     0.78755827   -0.91292430    0.02595449      18
          18
Lattice="  24.8920   0.0000   0.0000   0.0000  24.8920   0.0000   0.0000   0.0000  24.8920 " ConfE="      -5925.3437" DelE="          0.0553"
Co    -0.01301676   -3.50438977   -0.00094723       1
Ni     3.52818866    0.05205105   -0.01548518       2
Co     0.01552517    3.62231341    0.04429080       3
Ni    -3.57587240    0.05084411    0.00201365       4
Cr    -0.03868222    0.07792356   -3.65735887       5
Cr     0.00877273   -0.01058999    3.59156549       6
Cr    -0.01033803   -1.68694683   -1.76736031       7
Co    -0.05565549   -1.64860862    1.77176293       8
Co     1.62664147    0.05060125   -1.74716828       9
Ni     1.73346731    0.04698418    1.75992894      10
Ni    -1.75222693   -1.69750283   -0.02076365      11
Co     1.67195570    1.79554035    0.00292306      12
Ni    -1.74253479    1.78788315   -0.01174375      13
Ni    -1.73040082    0.04544548   -1.79623782      14
Cr    -1.73180327    0.05314651    1.76512858      15
Cr     0.05357232    1.77514980   -1.68537861      16
Cr     0.00400579    1.72768086    1.70097095      17
Ni     1.70273346   -1.71724699   -0.01205077      18
