          18
Lattice="  24.8920   0.0000   0.0000   0.0000  24.8920   0.0000   0.0000   0.0000  24.8920 " ConfE="      -5934.7633" DelE="          0.0000"
Ni    -0.03436031    0.01336157    3.52808545       1
Cr     3.47126697    0.01703073   -0.05133990       2
Cr    -0.03914593    0.08730167   -3.57132572       3
Ni    -3.60221285    0.01581450   -0.02451046       4
Ni    -0.02224724   -3.50505544   -0.00901904       5
Cr    -0.03754072    3.47749008   -0.06482049       6
Co     0.04813294   -1.77544441    1.81582187       7
Ni    -0.02689570    1.74909044    1.75046417       8
Co     1.79793520   -1.76634292   -0.03918628       9
Cr     1.70883413    1.71539320    0.00584747      10
Ni    -1.84494649    0.02062729    1.76101812      11
Ni     1.71932003    0.01625593   -1.84144983      12
Ni    -1.80211472    0.01231203   -1.79024582      13
Ni    -1.79389076   -1.75358739   -0.00773028      14
Co    -1.81941227    1.82296696   -0.03447790      15
Co     0.01667597   -1.79298382   -1.83276829      16
Co    -0.03477717    1.80586626   -1.80621000      17
Ni     0.00000000    0.00000000    0.00000000      18
          18
Lattice="  24.8920   0.0000   0.0000   0.0000  24.8920   0.0000   0.0000   0.0000  24.8920 " ConfE="      -5934.2772" DelE="          0.4861"
Ni    -0.01058299    0.01436472    3.46264144       1
Cr     3.45784198    0.04131119   -0.03127780       2
Cr    -0.02169563    0.07899354   -3.56492820       3
Ni    -3.59232829    0.01004934   -0.01663951       4
Ni    -0.03976179   -3.57505231   -0.02960863       5
Cr    -0.09450544    3.56110434   -0.09054542       6
Co    -0.01618054   -1.92135152    1.81519881       7
Ni    -0.09260984    1.89643472    1.75640639       8
Co     1.84853445   -1.99273486   -0.13414805       9
Cr     1.72617445    1.96464280   -0.07428228      10
Ni    -1.76691799    0.02595082    1.71775638      11
Ni     1.67348124    0.01910161   -1.72162847      12
Ni    -1.74573710    0.00868389   -1.74716237      13
Ni    -1.74564565   -1.74511984   -0.00465455      14
Co    -1.78866793    1.82428369   -0.04457001      15
Co     0.02079904   -1.79258873   -1.80815459      16
Co    -0.02197121    1.81052282   -1.76236195      17
Ni     0.96698430   -0.00596376    0.86959908      18
          18
Lattice="  24.8920   0.0000   0.0000   0.0000  24.8920   0.0000   0.0000   0.0000  24.8920 " ConfE="      -5934.8120" DelE="         -0.0487"
Ni    -0.05330930    0.00959356    3.55460182       1
Cr     3.52725018    0.03168204   -0.08030893       2
Cr    -0.03671954    0.07675279   -3.58619272       3
Ni    -3.60517665    0.01176477   -0.02361858       4
Ni    -0.03418537   -3.53502710   -0.01824784       5
Cr    -0.04939203    3.53509960   -0.07086092       6
Co    -0.00667946   -1.80067216    1.78853223       7
Ni    -0.05400377    1.74484604    1.71285811       8
Co     1.77716905   -1.80122005   -0.06962113       9
Cr     1.64732111    1.73323850   -0.06402974      10
Ni    -1.81136493    0.01852056    1.74218991      11
Ni     1.68948094    0.00647533   -1.78660392      12
Ni    -1.76144457    0.00834170   -1.76421352      13
Ni    -1.75377811   -1.72578888   -0.01085903      14
Co    -1.80561578    1.81884550   -0.04704737      15
Co     0.01481123   -1.79266233   -1.82535029      16
Co    -0.03126749    1.79450972   -1.77421466      17
Ni     1.70465029   -0.01066385    1.69602685      18
