          18
Lattice="  24.8920   0.0000   0.0000   0.0000  24.8920   0.0000   0.0000   0.0000  24.8920 " ConfE="      -5948.0770" DelE="          0.0000"
Ni    -3.48037164    0.02661775    0.02734323       1
Co     0.00868633    0.01972118    3.51902297       2
Co     3.58906197    0.00187493    0.00850126       3
Cr     0.01041432    0.00700969   -3.56292082       4
Co     0.06190405   -3.51016159   -0.03759760       5
Co    -0.00048816    3.57646024   -0.00260051       6
Ni     0.00476628   -1.75940049    1.75400687       7
Ni    -0.00385697    1.76580766    1.75489921       8
Ni    -1.75270295   -1.74806381    0.01577399       9
Cr    -1.74279688    1.79032416   -0.03651270      10
Ni     1.79667868   -0.01297554   -1.76880472      11
Ni     1.81045560    1.77267547   -0.00903914      12
Cr     1.83416951   -0.01428402    1.76054170      13
Co    -1.72313031    0.01480898   -1.83448591      14
Cr    -0.00097068   -1.79028230   -1.77222350      15
Co     0.02408329    1.80154671   -1.78714315      16
Cr     1.80962555   -1.81955580    0.00708306      17
Ni     0.00000000    0.00000000    0.00000000      18
          18
Lattice="  24.8920   0.0000   0.0000   0.0000  24.8920   0.0000   0.0000   0.0000  24.8920 " ConfE="      -5947.0045" DelE="          1.0725"
Ni    -3.39776724    0.02271542    0.03001723       1
Co     0.00664473    0.02341980    3.46139105       2
Co     3.55325932    0.01757679    0.00656357       3
Cr     0.03252630    0.01222829   -3.51301501       4
Co     0.06889554   -3.57958067   -0.04633410       5
Co     0.02131184    3.65679516   -0.01877505       6
Ni     0.02517915   -1.90105655    1.75973452       7
Ni     0.06151287    1.93430782    1.77971883       8
Ni    -1.79310953   -1.94710439   -0.03336869       9
Cr    -1.73571650    1.98493075   -0.11675419      10
Ni     1.26405991   -0.05670263   -1.16698436      11
Ni     1.83079397    1.91591138    0.03492598      12
Cr     1.69568104   -0.02291087    1.63220386      13
Co    -1.66742324    0.02050985   -1.79146470      14
Cr    -0.07712338   -1.87860439   -1.75420461      15
Co     0.01653985    1.91496343   -1.79263773      16
Cr     1.84383399   -1.94911550    0.10131010      17
Ni    -0.77150913    0.03212264    0.64362878      18
          18
Lattice="  24.8920   0.0000   0.0000   0.0000  24.8920   0.0000   0.0000   0.0000  24.8920 " ConfE="      -5947.8061" DelE="          0.2709"
Ni    -3.51973634    0.03047994   -0.01784187       1
Co     0.04803314    0.01838197    3.53599492       2
Co     3.51256133    0.01462875   -0.06113473       3
Cr     0.07094969   -0.01000554   -3.46600426       4
Co     0.05871995   -3.55502031   -0.03627956       5
Co    -0.00217732    3.64036105   -0.00179348       6
Ni     0.02368845   -1.78244589    1.71810027       7
Ni     0.04102999    1.78351816    1.70903573       8
Ni    -1.73274305   -1.76844011   -0.02246874       9
Cr    -1.68423582    1.76534699   -0.09400243      10
Ni     0.89321590   -0.04771233   -0.93541851      11
Ni     1.83473028    1.90263685   -0.00225810      12
Cr     1.74869008   -0.03097112    1.63811096      13
Co    -1.65299728    0.04131143   -1.74649889      14
Cr    -0.04063090   -1.96793966   -1.79112920      15
Co     0.01300533    1.97891605   -1.81909704      16
Cr     1.86971000   -1.94258216    0.04180789      17
Ni    -1.70373023    0.01769766    1.71318514      18
