          18
Lattice="  24.8920   0.0000   0.0000   0.0000  24.8920   0.0000   0.0000   0.0000  24.8920 " ConfE="      -5944.8257" DelE="          0.0000"
Ni    -3.42369330    0.03799050   -0.00734584       1
Cr    -0.03035698   -0.02100340    3.47776855       2
Co     3.59361783    0.01408592   -0.02527312       3
Co     0.03179718    0.03001353   -3.61044266       4
Co     0.09608900    3.60190853   -0.00260172       5
Cr     0.08001839   -3.49799973    0.00882107       6
Ni    -1.70751279    1.80384644   -0.03616822       7
Co    -1.71196030   -1.75893435    0.01320302       8
Ni     0.02947417    1.74603821    1.75233468       9
Co     0.04665290   -1.75719284    1.75997565      10
Co    -1.73382425    0.01703178   -1.85222388      11
Co     1.85040934    0.00132970    1.75242298      12
Ni     1.78849011    0.00424473   -1.80220330      13
Co     0.03777185    1.82166953   -1.84480356      14
Cr    -0.04228737   -1.74165856   -1.77700796      15
Ni     1.80125232    1.77813291   -0.04951564      16
Cr     1.81646066   -1.74222160    0.01216995      17
Ni     0.00000000    0.00000000    0.00000000      18
          18
Lattice="  24.8920   0.0000   0.0000   0.0000  24.8920   0.0000   0.0000   0.0000  24.8920 " ConfE="      -5944.2930" DelE="          0.5327"
Ni    -3.33115777    0.03569433    0.01821820       1
Cr    -0.03490591   -0.00905426    3.41327958       2
Co     3.58650272    0.01589136   -0.01588975       3
Co     0.02381310    0.03610823   -3.62400760       4
Co     0.10530037    3.66878450   -0.01456085       5
Cr     0.08616243   -3.57510337   -0.01792506       6
Ni    -1.70835261    1.93749012   -0.07098006       7
Co    -1.74122377   -1.93590363   -0.06344577       8
Ni     0.09147856    1.93154594    1.76758215       9
Co     0.11624891   -1.96907376    1.78198184      10
Co    -1.67263315    0.01832942   -1.79681594      11
Co     1.77066214   -0.00335457    1.71370567      12
Ni     1.72534293    0.01247852   -1.74278050      13
Co     0.02892889    1.83019384   -1.82306286      14
Cr    -0.06783344   -1.68089761   -1.70614290      15
Ni     1.78785846    1.80145748   -0.04801073      16
Cr     1.71800612   -1.69652255    0.02772970      17
Ni    -0.70666317   -0.02968461    0.78482009      18
          18
Lattice="  24.8920   0.0000   0.0000   0.0000  24.8920   0.0000   0.0000   0.0000  24.8920 " ConfE="      -5945.0443" DelE="         -0.2185"
Ni    -3.44970882    0.03365682   -0.04511527       1
Cr     0.04886332   -0.02032878    3.53844591       2
Co     3.60553373    0.01433802   -0.02731867       3
Co     0.03053161    0.03300080   -3.63577983       4
Co     0.10544663    3.62656163   -0.00698161       5
Cr     0.07597169   -3.54112496   -0.00422136       6
Ni    -1.65498429    1.78092032   -0.05889354       7
Co    -1.64210280   -1.73386194   -0.02645274       8
Ni     0.07100595    1.77261410    1.73655402       9
Co     0.07391774   -1.76537123    1.72256810      10
Co    -1.68852993    0.01474586   -1.82351646      11
Co     1.80094083   -0.00954143    1.71157453      12
Ni     1.74483646    0.00051859   -1.76990474      13
Co     0.04340415    1.82152565   -1.85205239      14
Cr    -0.05613522   -1.68323893   -1.73105255      15
Ni     1.77810902    1.75706687   -0.05718013      16
Cr     1.73986268   -1.69748306    0.01856829      17
Ni    -1.66644289    0.03758149    1.74768911      18
