          18
Lattice="  24.8920   0.0000   0.0000   0.0000  24.8920   0.0000   0.0000   0.0000  24.8920 " ConfE="      -5943.2234" DelE="          0.0000"
Ni    -0.00367860    0.09441419   -3.51101676       1
Ni    -3.55944747    0.11337631    0.02654172       2
Ni     3.50663827    0.11957920    0.04345905       3
Co    -0.02545130   -3.40061076    0.05768088       4
Co     0.03883205    3.67732913    0.02489240       5
Cr    -0.07531904    0.14865257    3.61154794       6
Ni    -1.75595374    0.08258983   -1.73787938       7
Ni    -0.04536666    1.91480636   -1.78035262       8
Ni    -0.02587283    1.88485561    1.78064943       9
Co     1.69504631    0.12749088   -1.72623608      10
Ni     1.74937488    0.10919808    1.82434134      11
Co    -1.77051700   -1.66669276    0.02150409      12
Co     1.72612680   -1.66404445    0.06297102      13
Cr    -0.10573020   -1.66066781    1.83899889      14
Cr    -1.73537399    1.91483090    0.00513337      15
Cr     1.66391969    1.81059046   -0.05729294      16
Co    -1.81433978    0.12357400    1.80857343      17
Cr     0.00000000    0.00000000    0.00000000      18
          18
Lattice="  24.8920   0.0000   0.0000   0.0000  24.8920   0.0000   0.0000   0.0000  24.8920 " ConfE="      -5942.6493" DelE="          0.5741"
Ni    -0.00890279    0.10187504   -3.47498804       1
Ni    -3.60375625    0.12176160    0.03612280       2
Ni     3.53812079    0.13259081    0.04598918       3
Co    -0.02854092   -3.39088556    0.06697461       4
Co     0.03551866    3.68442817    0.01902718       5
Cr    -0.07810346    0.12529140    3.57719356       6
Ni    -1.84630919    0.13567356   -1.74039048       7
Ni    -0.04813929    1.86498979   -1.75915374       8
Ni    -0.02900727    1.86033003    1.74561514       9
Co     1.81990939    0.17345945   -1.76612899      10
Ni     1.70892202    0.09654016    1.76276887      11
Co    -1.83880269   -1.65771656    0.03950883      12
Co     1.88444334   -1.72079189    0.13220766      13
Cr    -0.10304959   -1.63866567    1.77036677      14
Cr    -1.70348664    1.86885036   -0.00617451      15
Cr     1.60480740    1.74736858   -0.08008325      16
Co    -1.78010559    0.10838392    1.75894543      17
Cr     0.09316658   -0.95531986   -0.97204726      18
          18
Lattice="  24.8920   0.0000   0.0000   0.0000  24.8920   0.0000   0.0000   0.0000  24.8920 " ConfE="      -5943.1649" DelE="          0.0585"
Ni    -0.00705002    0.11848525   -3.50246512       1
Ni    -3.58594050    0.12833370    0.03793354       2
Ni     3.52286103    0.13521459    0.04553908       3
Co    -0.02602101   -3.47960912    0.06307323       4
Co     0.03321273    3.72634047    0.02829793       5
Cr    -0.08690123    0.14046667    3.57512297       6
Ni    -1.75002673    0.13258182   -1.68618719       7
Ni    -0.04844862    1.91259407   -1.74104430       8
Ni    -0.03660118    1.87846925    1.73243907       9
Co     1.68909974    0.16057655   -1.68918289      10
Ni     1.70482055    0.12981811    1.76457836      11
Co    -1.77318474   -1.64635962    0.04008605      12
Co     1.72077308   -1.65522453    0.05788489      13
Cr    -0.10706049   -1.61120197    1.68549109      14
Cr    -1.75495762    1.94659902    0.00964447      15
Cr     1.66238026    1.85438747   -0.06427514      16
Co    -1.79547722    0.13103532    1.78381772      17
Cr     0.00303635   -1.62537520   -1.55460135      18
