          18
Lattice="  24.8920   0.0000   0.0000   0.0000  24.8920   0.0000   0.0000   0.0000  24.8920 " ConfE="      -5944.7048" DelE="          0.0000"
Ni    -0.05896423   -0.06069252   -3.47617092       1
Ni    -0.04424876   -0.08032001    3.62257641       2
Cr    -0.01959037    3.39592691    0.02385228       3
Co    -3.55776755   -0.07992175    0.02971837       4
Cr     3.40122424   -0.02653712   -0.00274060       5
Cr    -0.01948699   -3.66796858    0.03250106       6
Ni    -1.78457653   -0.05287156   -1.71515721       7
Ni    -1.78691555    1.69589322    0.01928328       8
Co     1.66969298   -0.06221986   -1.66460242       9
Ni    -1.79799436   -1.84310038    0.05481213      10
Ni     1.72161994   -1.86349447    0.07324527      11
Co     1.65391002    1.69363387    0.04880011      12
Ni     1.70980315   -0.08152719    1.85303609      13
Co    -0.04620391   -1.90572869   -1.67920827      14
Co    -1.75284659   -0.07380847    1.81569812      15
Cr    -0.07891063   -1.86824339    1.80978159      16
Cr    -0.05249613    1.72975599    1.83500542      17
Cr     0.00000000    0.00000000    0.00000000      18
          18
Lattice="  24.8920   0.0000   0.0000   0.0000  24.8920   0.0000   0.0000   0.0000  24.8920 " ConfE="      -5943.9897" DelE="          0.7150"
Ni    -0.06511527   -0.06529488   -3.44329272       1
Ni    -0.04316477   -0.07269379    3.63452531       2
Cr    -0.02226759    3.39544794    0.04966249       3
Co    -3.63405673   -0.09408274    0.04715364       4
Cr     3.53470629   -0.02778623    0.05115614       5
Cr    -0.02825349   -3.62895244    0.03016067       6
Ni    -1.93564775   -0.11055262   -1.73541614       7
Ni    -1.89043685    1.68333504    0.06093396       8
Co     1.87280711   -0.13124131   -1.72077309       9
Ni    -1.81494867   -1.81825653    0.04638548      10
Ni     1.70749627   -1.79680941    0.06417922      11
Co     1.78549525    1.69312072    0.08353611      12
Ni     1.70020749   -0.06103925    1.81379208      13
Co    -0.04387853   -1.82215634   -1.65261889      14
Co    -1.72661307   -0.06890373    1.78459807      15
Cr    -0.09388995   -1.72995370    1.72964110      16
Cr    -0.06144235    1.65622758    1.76609609      17
Cr     0.02005476    0.75705636   -0.92164503      18
          18
Lattice="  24.8920   0.0000   0.0000   0.0000  24.8920   0.0000   0.0000   0.0000  24.8920 " ConfE="      -5944.4036" DelE="          0.3011"
Ni    -0.06537397   -0.08869866   -3.51837347       1
Ni    -0.03790519   -0.07162565    3.64298803       2
Cr    -0.02341210    3.46881241    0.06199156       3
Co    -3.59477012   -0.09460732    0.03868281       4
Cr     3.50089284   -0.04041568    0.05835972       5
Cr    -0.02305880   -3.65014096    0.03237825       6
Ni    -1.79599471   -0.08256128   -1.69881723       7
Ni    -1.78572470    1.64305378    0.05129998       8
Co     1.66954459   -0.08240469   -1.66115466       9
Ni    -1.80343157   -1.84629571    0.06108712      10
Ni     1.69871393   -1.82636533    0.08405397      11
Co     1.66950669    1.67230981    0.08648452      12
Ni     1.70042564   -0.07731370    1.84279638      13
Co    -0.04752167   -1.85718657   -1.65445049      14
Co    -1.72816547   -0.09691767    1.82120829      15
Cr    -0.09587903   -1.77525746    1.77445457      16
Cr    -0.04356267    1.66990595    1.74817166      17
Cr     0.03248275    1.55360868   -1.58986294      18
