          18
Lattice="  24.8920   0.0000   0.0000   0.0000  24.8920   0.0000   0.0000   0.0000  24.8920 " ConfE="      -5943.2474" DelE="          0.0000"
Co    -3.48587537   -0.05434877   -0.04938848       1
Ni    -0.00031195   -0.01414115   -3.50654196       2
Cr     3.55734589    0.02498478   -0.02112160       3
Cr     0.02105816   -0.00014968    3.57236913       4
Cr     0.04374019   -3.55614098    0.03598368       5
Co     0.00709881    3.57710809   -0.00108670       6
Cr    -1.80954790   -1.72576816   -0.03941606       7
Ni    -1.74241167    1.73435240   -0.01673349       8
Ni    -0.02835003   -1.73503699   -1.75773006       9
Ni     0.02834848    1.79305354   -1.81557165      10
Co    -1.74054850   -0.00549782    1.83351816      11
Co     1.87955725    0.00420501   -1.74837670      12
Cr     1.80960712    0.01779789    1.79894393      13
Cr     0.02834695   -1.77455865    1.79955609      14
Co     0.04613389    1.73331273    1.81080332      15
Ni     1.79391719   -1.76155695   -0.00424447      16
Ni     1.79415670    1.79012749   -0.02715328      17
Ni     0.00000000    0.00000000    0.00000000      18
          18
Lattice="  24.8920   0.0000   0.0000   0.0000  24.8920   0.0000   0.0000   0.0000  24.8920 " ConfE="      -5942.5976" DelE="          0.6498"
Co    -3.48742407   -0.03983042   -0.04570213       1
Ni    -0.01078903   -0.01370334   -3.44771109       2
Cr     3.56773781    0.02561214   -0.03512978       3
Cr     0.01024219    0.00024584    3.58574004       4
Cr     0.05420174   -3.61098379    0.05632737       5
Co     0.01360287    3.62320996    0.00778650       6
Cr    -1.81190310   -1.89946055   -0.00323430       7
Ni    -1.77071943    1.87411781    0.03957299       8
Ni     0.06237988   -1.94448225   -1.83435813       9
Ni     0.06801035    1.95338078   -1.86109980      10
Co    -1.71327044   -0.01920347    1.76671286      11
Co     1.83199099    0.00538362   -1.73720331      12
Cr     1.72769782    0.02810686    1.70456604      13
Cr    -0.00751899   -1.72027437    1.73237576      14
Co     0.04848131    1.69373628    1.76338731      15
Ni     1.75892374   -1.75045576   -0.01376163      16
Ni     1.77991411    1.79423283   -0.04393070      17
Ni    -0.74144584   -0.02854710   -0.79790292      18
          18
Lattice="  24.8920   0.0000   0.0000   0.0000  24.8920   0.0000   0.0000   0.0000  24.8920 " ConfE="      -5943.1634" DelE="          0.0839"
Co    -3.56164352   -0.01749378   -0.00388269       1
Ni     0.04562732   -0.01970736   -3.54788879       2
Cr     3.57199751    0.02694393   -0.02110358       3
Cr     0.01914089   -0.00343602    3.60521577       4
Cr     0.06515018   -3.58898710    0.05216763       5
Co     0.01641015    3.59823585    0.00847298       6
Cr    -1.75293899   -1.73970076    0.01205615       7
Ni    -1.70109475    1.73836273    0.00891834       8
Ni     0.01885334   -1.73924550   -1.72983823       9
Ni     0.06366479    1.81319434   -1.81561179      10
Co    -1.69479746   -0.03070354    1.76411951      11
Co     1.85885352    0.01476348   -1.73379958      12
Cr     1.77037047    0.02946730    1.78087539      13
Cr     0.01299541   -1.72765630    1.77728281      14
Co     0.06794049    1.67555485    1.78329451      15
Ni     1.75080750   -1.71330782    0.01840864      16
Ni     1.77956344    1.76484169   -0.02203057      17
Ni    -1.69116142    0.01952581   -1.74240816      18
