          18
Lattice="  24.8920   0.0000   0.0000   0.0000  24.8920   0.0000   0.0000   0.0000  24.8920 " ConfE="      -5946.2953" DelE="          0.0000"
Ni     0.00470138    0.04977048    3.47271125       1
Ni     0.02455857    3.50128226   -0.00759735       2
Co     0.06691781   -0.01988431   -3.56713635       3
Ni     0.04119069   -3.54709377   -0.00456964       4
Ni     3.59514573   -0.01103904   -0.00350045       5
Co    -3.50430667   -0.01317365    0.01718655       6
Ni     1.77471942    0.01799491    1.75433697       7
Cr    -1.72129421    0.07873197    1.72244012       8
Ni     1.79274705    1.74474113   -0.01289817       9
Co    -1.68420709    1.72287555    0.04761055      10
Cr     0.02553518   -1.77947890    1.74560816      11
Cr     0.01918377    1.67964839   -1.81411917      12
Cr     0.02289479   -1.72098210   -1.83726705      13
Cr     1.82448954   -1.77341554   -0.03196779      14
Ni    -1.75135938   -1.79658164   -0.00695022      15
Cr     1.88422352   -0.01110803   -1.85401054      16
Co    -1.72243724   -0.01288792   -1.78054353      17
Cr     0.00000000    0.00000000    0.00000000      18
          18
Lattice="  24.8920   0.0000   0.0000   0.0000  24.8920   0.0000   0.0000   0.0000  24.8920 " ConfE="      -5945.7093" DelE="          0.5860"
Ni     0.00510811    0.03651106    3.44404637       1
Ni     0.01926091    3.42619727    0.00179922       2
Co     0.06013244   -0.01746300   -3.57767514       3
Ni     0.04351973   -3.53020734    0.00946103       4
Ni     3.65128370   -0.00222820   -0.00193388       5
Co    -3.56635026   -0.01539370    0.00563138       6
Ni     1.92596236    0.01132347    1.80196544       7
Cr    -1.98529120   -0.02646176    1.77628286       8
Ni     1.87603982    1.74506610   -0.02863326       9
Co    -1.85152088    1.77944892   -0.03402705      10
Cr     0.03902175   -1.71740201    1.70601261      11
Cr    -0.01340740    1.58354513   -1.74574724      12
Cr     0.01313570   -1.53829284   -1.66789820      13
Cr     1.73960633   -1.63928404    0.01844639      14
Ni    -1.73310520   -1.73996917    0.01895847      15
Cr     1.86385010    0.02132380   -1.80718117      16
Co    -1.72117705    0.00884200   -1.74577178      17
Cr    -0.08475217    0.80686654    0.91528321      18
          18
Lattice="  24.8920   0.0000   0.0000   0.0000  24.8920   0.0000   0.0000   0.0000  24.8920 " ConfE="      -5946.5174" DelE="         -0.2220"
Ni     0.01933340    0.00669735    3.52357185       1
Ni     0.03174059    3.54386835   -0.03984255       2
Co     0.06843476   -0.02037644   -3.58470636       3
Ni     0.04072773   -3.55248767   -0.00076952       4
Ni     3.62307555   -0.01359901   -0.00635078       5
Co    -3.55353280   -0.01814542    0.02287471       6
Ni     1.78020939    0.00004638    1.73255409       7
Cr    -1.71895834    0.03979832    1.69967993       8
Ni     1.79820465    1.72101479   -0.02968643       9
Co    -1.69451906    1.70628364    0.01960246      10
Cr     0.02935755   -1.67408189    1.65568748      11
Cr    -0.01697997    1.57175788   -1.68501642      12
Cr     0.02756866   -1.57308575   -1.68351226      13
Cr     1.81267912   -1.75150936   -0.03588073      14
Ni    -1.74512199   -1.76734159   -0.00241027      15
Cr     1.86458487    0.00389457   -1.83124934      16
Co    -1.70757152   -0.01395758   -1.75688228      17
Cr     0.00363517    1.75872330    1.70542643      18
