          18
Lattice="  24.8920   0.0000   0.0000   0.0000  24.8920   0.0000   0.0000   0.0000  24.8920 " ConfE="      -5945.1995" DelE="          0.0000"
Ni     0.03501001    3.49488009   -0.02624928       1
Ni    -3.41788102    0.01083218   -0.07363541       2
Ni     0.08222787   -3.60730457   -0.05825695       3
Co     3.58508749   -0.01709257   -0.05526125       4
Ni     0.07263161    0.00277891   -3.57762017       5
Ni     0.08890025   -0.01502650    3.49762009       6
Co    -0.02317584    1.70977590   -1.73534778       7
Cr     0.00845153    1.76137841    1.70533135       8
Cr    -1.65878374    0.03963060   -1.81237693       9
Cr    -1.66666987   -0.04193982    1.69750339      10
Co     1.83922122    1.72785420   -0.03207518      11
Ni    -1.69794377   -1.82669919   -0.05300378      12
Cr     1.81284283   -1.73565296   -0.09072158      13
Co     1.82084990   -0.03717210   -1.80587667      14
Co     1.82251544   -0.01676382    1.72315057      15
Co     0.04313506   -1.79191965   -1.81311642      16
Cr     0.15917273   -1.80768008    1.68057383      17
Co     0.00000000    0.00000000    0.00000000      18
          18
Lattice="  24.8920   0.0000   0.0000   0.0000  24.8920   0.0000   0.0000   0.0000  24.8920 " ConfE="      -5944.0138" DelE="          1.1857"
Ni     0.03782710    3.50359981   -0.03092225       1
Ni    -3.43859302    0.00018076   -0.07880488       2
Ni     0.07154347   -3.62635706   -0.05524397       3
Co     3.54910444   -0.00274376   -0.09023555       4
Ni     0.12708774    0.00233384   -3.55248504       5
Ni     0.10544379   -0.02262586    3.51929662       6
Co     0.06689571    1.85466438   -1.87717898       7
Cr     0.10848261    1.77548482    1.79081902       8
Cr    -1.66623340   -0.02632471   -1.93610773       9
Cr    -1.71221153   -0.12597879    1.83496717      10
Co     1.86392143    1.84548206   -0.01404178      11
Ni    -1.65533264   -1.74975636   -0.06415234      12
Cr     1.83134160   -1.86746871   -0.07000468      13
Co     1.17211603   -0.07804045   -1.14735685      14
Co     1.76412966   -0.00198772    1.63826997      15
Co    -0.02577353   -1.92471511   -1.87190018      16
Cr     0.16351925   -1.70266397    1.58161495      17
Co    -1.08448123    1.06926281    0.00711009      18
          18
Lattice="  24.8920   0.0000   0.0000   0.0000  24.8920   0.0000   0.0000   0.0000  24.8920 " ConfE="      -5945.1930" DelE="          0.0065"
Ni     0.08129089    3.52650319   -0.04114019       1
Ni    -3.46086077   -0.01372764   -0.06370520       2
Ni     0.08578893   -3.60078880   -0.07171029       3
Co     3.54751004   -0.02021775   -0.09918379       4
Ni     0.13216286   -0.00295744   -3.52898910       5
Ni     0.09406699   -0.02219463    3.49583256       6
Co     0.07016007    1.71815975   -1.76945894       7
Cr     0.05673913    1.74750702    1.69879312       8
Cr    -1.70377595    0.00221053   -1.86034048       9
Cr    -1.67159449   -0.07903568    1.72548895      10
Co     1.83396933    1.70577412   -0.06482850      11
Ni    -1.69610023   -1.80482510   -0.06812807      12
Cr     1.82497825   -1.69194324   -0.16549679      13
Co     0.09808571   -0.06189472   -0.04851214      14
Co     1.83373955   -0.01598325    1.74036742      15
Co     0.09154929   -1.78116161   -1.81966258      16
Cr     0.19347080   -1.79866072    1.63711546      17
Co    -1.65708957    1.73473011   -0.02036735      18
