          18
Lattice="  24.8920   0.0000   0.0000   0.0000  24.8920   0.0000   0.0000   0.0000  24.8920 " ConfE="      -5930.2382" DelE="          0.0000"
Ni    -0.01036216    0.01266362   -3.46266619       1
Cr    -3.49236719   -0.03915717   -0.08288743       2
Co     0.01663878    3.58637994    0.04712315       3
Co    -0.05563530   -3.55790112    0.02723619       4
Co     0.02907348    0.03446886    3.60968753       5
Co     3.54462379    0.02575926    0.05950273       6
Ni    -1.75589713    1.74799224   -0.02728354       7
Co    -1.75905965   -1.74297963    0.00757690       8
Co     0.02151417    1.75529511   -1.74601608       9
Cr    -0.04426877   -1.75247805   -1.71112447      10
Ni    -0.00731957   -1.77272841    1.81139254      11
Ni     1.78948464   -0.00311277    1.81589065      12
Cr    -1.72446075    0.08248614    1.83325508      13
Cr     1.80904299    0.02252506   -1.66795637      14
Co     0.03493707    1.77336100    1.81349353      15
Co     1.81315615    1.80651747    0.07068665      16
Cr     1.77319815   -1.80522043    0.02807798      17
Ni     0.00000000    0.00000000    0.00000000      18
          18
Lattice="  24.8920   0.0000   0.0000   0.0000  24.8920   0.0000   0.0000   0.0000  24.8920 " ConfE="      -5925.5765" DelE="          4.6617"
Ni     0.01295107   -0.06601703   -3.59698245       1
Cr    -3.50163017   -0.02728500   -0.06842524       2
Co    -0.01355037    3.63965178    0.06315651       3
Co    -0.06850595   -3.63699962   -0.02771771       4
Co    -0.01426617    0.06814840    3.68194968       5
Co     3.52017930    0.04023130    0.10505079       6
Ni    -1.68734214    1.68640526   -0.06496221       7
Co    -1.69016342   -1.68136988   -0.01837313       8
Co    -0.25788622    1.72209686   -2.13916544       9
Cr    -0.03231780   -1.64948371   -1.62349433      10
Ni    -0.22897114   -2.16512796    1.86241985      11
Ni     0.82036079   -0.26754999    1.42319969      12
Cr    -1.70368538    0.04277905    1.78905981      13
Cr     1.79163779   -0.07116599   -1.75415818      14
Co    -0.10415895    1.92923730    1.93807197      15
Co     2.24859417    1.50673292    1.51316186      16
Cr     1.75404400   -1.86783067    0.04057483      17
Ni     0.82805715    1.34723140   -0.25933115      18
          18
Lattice="  24.8920   0.0000   0.0000   0.0000  24.8920   0.0000   0.0000   0.0000  24.8920 " ConfE="      -5930.4907" DelE="         -0.2525"
Ni    -0.00932533    0.00626532   -3.46008628       1
Cr    -3.49252184   -0.03815693   -0.08355229       2
Co     0.00966144    3.59405582    0.05146505       3
Co    -0.05193800   -3.55553128    0.02696050       4
Co     0.03118040    0.02704885    3.60383616       5
Co     3.53885759    0.02170972    0.07217334       6
Ni    -1.75804396    1.75113543   -0.02373437       7
Co    -1.75903695   -1.74212729    0.00476498       8
Co     0.00596047    1.75792266   -1.75789539       9
Cr    -0.04330043   -1.76260477   -1.71148180      10
Ni    -0.01196860   -1.77480446    1.80625835      11
Ni    -0.00701840   -0.00353156   -0.00819032      12
Cr    -1.71837182    0.07614004    1.83232298      13
Cr     1.81143236   -0.01080372   -1.68010036      14
Co     0.03840383    1.76757500    1.81766540      15
Co     1.77990316   -0.01681876    1.81373698      16
Cr     1.77327229   -1.80011596    0.04709388      17
Ni     1.78034437    1.79887431    0.03555489      18
