          18
Lattice="  24.8920   0.0000   0.0000   0.0000  24.8920   0.0000   0.0000   0.0000  24.8920 " ConfE="      -5944.7722" DelE="          0.0000"
Ni    -3.42501280   -0.03713925   -0.03318007       1
Ni     0.07749484   -0.09021246   -3.57507666       2
Ni     0.07743786   -0.07073340    3.54980781       3
Co     0.05485446    3.42186364   -0.06568177       4
Cr     3.71556322   -0.04394057   -0.05231314       5
Cr     0.07055117   -3.59660323   -0.04860797       6
Ni    -1.68669639   -0.08571766   -1.80109901       7
Ni     0.05207881    1.67976581   -1.79615850       8
Ni     1.85453919   -1.81711405    0.00519475       9
Co    -1.69130566   -0.04122964    1.73125422      10
Ni     1.85059125   -0.06535010   -1.76033137      11
Co     0.08435493    1.64956697    1.70025017      12
Co    -1.67367103   -1.88533348    0.01403912      13
Cr     1.82886184    1.74826326    0.00541334      14
Co     0.07837616   -1.87658541   -1.72921005      15
Cr     0.02307977   -1.77951103    1.68658190      16
Cr     1.86265306   -0.03222392    1.77491243      17
Cr     0.00000000    0.00000000    0.00000000      18
          18
Lattice="  24.8920   0.0000   0.0000   0.0000  24.8920   0.0000   0.0000   0.0000  24.8920 " ConfE="      -5944.3291" DelE="          0.4431"
Ni    -3.39493632   -0.05636460   -0.03054158       1
Ni     0.08388088   -0.10140159   -3.61980394       2
Ni     0.08963078   -0.08053364    3.59177954       3
Co     0.07645682    3.39071829   -0.06650842       4
Cr     3.67725949   -0.03561051   -0.04981137       5
Cr     0.06239774   -3.58450588   -0.06439242       6
Ni    -1.68707579   -0.12944829   -1.89841866       7
Ni     0.08998600    1.69534407   -1.91659291       8
Ni     1.83197552   -1.80775055   -0.00083102       9
Co    -1.71355482   -0.09813844    1.86616882      10
Ni     1.80351970   -0.06337670   -1.73512138      11
Co     0.14405665    1.68911632    1.84571085      12
Co    -1.62398499   -1.79109032    0.01274004      13
Cr     1.77507314    1.72957668   -0.01764008      14
Co     0.06715744   -1.86695608   -1.71738858      15
Cr     0.00114768   -1.71664903    1.62184983      16
Cr     1.75632453   -0.02002914    1.68968179      17
Cr    -0.92648876    0.92849446    0.03738274      18
          18
Lattice="  24.8920   0.0000   0.0000   0.0000  24.8920   0.0000   0.0000   0.0000  24.8920 " ConfE="      -5944.7030" DelE="          0.0692"
Ni    -3.44696445   -0.06227339   -0.03235209       1
Ni     0.08649084   -0.10224556   -3.59786480       2
Ni     0.08580507   -0.08025423    3.56915959       3
Co     0.07391613    3.48513826   -0.05572663       4
Cr     3.69816300   -0.04358475   -0.04590544       5
Cr     0.06747099   -3.59692620   -0.05889435       6
Ni    -1.65638568   -0.10786660   -1.79460510       7
Ni     0.08347800    1.65815229   -1.81110266       8
Ni     1.83605067   -1.81125107    0.01239328       9
Co    -1.64866580   -0.07000799    1.72273389      10
Ni     1.83617197   -0.08171251   -1.73790570      11
Co     0.11137644    1.63569168    1.70532173      12
Co    -1.62276225   -1.83917429    0.01922666      13
Cr     1.73068273    1.69942204    0.01165067      14
Co     0.08590983   -1.90336474   -1.72541530      15
Cr     0.01576056   -1.77145125    1.65228924      16
Cr     1.84054589   -0.05468219    1.75724790      17
Cr    -1.54317331    1.64885809   -0.01279157      18
