          18
Lattice="  24.8920   0.0000   0.0000   0.0000  24.8920   0.0000   0.0000   0.0000  24.8920 " ConfE="      -5949.2058" DelE="          0.0000"
Ni    -0.03302575    0.03045764    3.58280345       1
Cr    -0.05577194   -0.00972204   -3.49682411       2
Cr     3.49052883    0.10299393   -0.03828552       3
Ni     0.00716711   -3.54977682   -0.00402188       4
Cr    -3.58139508   -0.02152089    0.05054424       5
Cr     0.00955346    3.52526588    0.00455868       6
Cr    -0.03963499   -1.71637211   -1.73895083       7
Cr     1.75208977   -1.64876026   -0.07130345       8
Co    -0.01848350    1.73186793   -1.74801648       9
Co     1.76388213    1.71225109   -0.02829332      10
Ni    -1.85669100    0.01638364   -1.74695373      11
Ni    -1.81032486    1.80298531    0.02241966      12
Cr    -0.01679459   -1.78727665    1.81339780      13
Cr     1.73230228    0.03443125    1.81043332      14
Co    -1.79947760    0.05366861    1.80761176      15
Cr     0.02696828    1.84344166    1.74235192      16
Cr    -1.79217879   -1.76227745    0.05966493      17
Co     0.00000000    0.00000000    0.00000000      18
          18
Lattice="  24.8920   0.0000   0.0000   0.0000  24.8920   0.0000   0.0000   0.0000  24.8920 " ConfE="      -5948.6504" DelE="          0.5554"
Ni    -0.02787683    0.03930382    3.58679249       1
Cr    -0.01550815   -0.01288936   -3.42580881       2
Cr     3.44118291    0.06998975   -0.05933650       3
Ni    -0.02847438   -3.60215270    0.00897132       4
Cr    -3.58931905   -0.01653189    0.04511906       5
Cr    -0.03645871    3.63846014    0.03791558       6
Cr    -0.10393924   -1.86965608   -1.77454594       7
Cr     1.76877829   -1.90409141    0.05778475       8
Co    -0.05420694    1.86749867   -1.72850877       9
Co     1.76836138    1.89401117    0.01756438      10
Ni    -1.79310558    0.02182195   -1.71206910      11
Ni    -1.79226341    1.80521037    0.02483193      12
Cr    -0.02388666   -1.72196877    1.76301306      13
Cr     1.70923603    0.04537613    1.72482917      14
Co    -1.76839126    0.06433257    1.78099839      15
Cr     0.04746293    1.80273120    1.65861183      16
Cr    -1.73733235   -1.71568437    0.05996415      17
Co     0.80290294   -0.09490771   -0.76380848      18
          18
Lattice="  24.8920   0.0000   0.0000   0.0000  24.8920   0.0000   0.0000   0.0000  24.8920 " ConfE="      -5949.0709" DelE="          0.1349"
Ni    -0.03130021    0.03679456    3.59718101       1
Cr    -0.08162313   -0.02288040   -3.54345257       2
Cr     3.54249342    0.07702043   -0.00989401       3
Ni    -0.00101090   -3.57796247    0.00330472       4
Cr    -3.60040157   -0.02106854    0.05364323       5
Cr    -0.01864762    3.58192974    0.02551766       6
Cr    -0.04551180   -1.71055706   -1.70507362       7
Cr     1.69325808   -1.67562950    0.02326959       8
Co    -0.03978861    1.73985363   -1.71202527       9
Co     1.69375908    1.71759037    0.02533210      10
Ni    -1.81208462    0.01509129   -1.71686077      11
Ni    -1.79726171    1.79137860    0.03270573      12
Cr    -0.02847326   -1.74393802    1.79244780      13
Cr     1.70353609    0.05498454    1.75509113      14
Co    -1.77905283    0.05502394    1.79480423      15
Cr     0.01990487    1.82297016    1.71177095      16
Cr    -1.74341155   -1.72293727    0.06909950      17
Co     1.68526069   -0.04889461   -1.69598771      18
