          18
Lattice="  24.8920   0.0000   0.0000   0.0000  24.8920   0.0000   0.0000   0.0000  24.8920 " ConfE="      -5942.2479" DelE="          0.0000"
Ni    -3.54408641    0.02243850    0.06124519       1
Co    -0.03214966   -3.40637042    0.06911922       2
Ni     3.58012069    0.08721896    0.04832792       3
Co     0.03529462    3.62871709    0.06977770       4
Co     0.01725353    0.09355431    3.58423128       5
Cr     0.03701095    0.01849118   -3.45023691       6
Ni    -1.75683582    0.01786004    1.77952639       7
Ni    -1.80068507    0.03886418   -1.70077136       8
Cr     0.00285675   -1.68203137    1.76486534       9
Co    -0.02875317   -1.66161535   -1.64516484      10
Ni    -1.75544154    1.85181484    0.06415937      11
Ni     1.83699695   -1.70126758    0.03606101      12
Cr     1.80949401    1.89258956    0.04524691      13
Cr     0.03757958    1.85932857    1.84661749      14
Cr     0.06404710    1.81690015   -1.75454214      15
Cr     1.76806997    0.09654727    1.80415046      16
Co     1.75653032    0.09925997   -1.70367267      17
Cr     0.00000000    0.00000000    0.00000000      18
          18
Lattice="  24.8920   0.0000   0.0000   0.0000  24.8920   0.0000   0.0000   0.0000  24.8920 " ConfE="      -5941.6711" DelE="          0.5768"
Ni    -3.48967466    0.02822239    0.06594225       1
Co    -0.04226366   -3.40949853    0.04878647       2
Ni     3.57360241    0.07435845    0.05404546       3
Co     0.02777852    3.62995241    0.06570295       4
Co     0.03399874    0.10366500    3.64689938       5
Cr     0.04054939    0.05908370   -3.54654628       6
Ni    -1.80593460    0.14109951    1.97647372       7
Ni    -1.81785224    0.06906920   -1.81711104       8
Cr     0.01577047   -1.71352532    1.92017873       9
Co    -0.00551610   -1.68314568   -1.78173770      10
Ni    -1.73357998    1.79411537    0.06226402      11
Ni     1.73480857   -1.66880562    0.03913003      12
Cr     1.76486623    1.83048049    0.03617788      13
Cr     0.03074260    1.79348254    1.76922625      14
Cr     0.05419432    1.68802321   -1.66015776      15
Cr     1.65915078    0.07921418    1.73457681      16
Co     1.69448164    0.09501913   -1.67757239      17
Cr    -0.80776313   -0.80050899    0.12035605      18
          18
Lattice="  24.8920   0.0000   0.0000   0.0000  24.8920   0.0000   0.0000   0.0000  24.8920 " ConfE="      -5942.6718" DelE="         -0.4239"
Ni    -3.57426537    0.07635266    0.05338490       1
Co     0.00361135   -3.48902783    0.06923148       2
Ni     3.59006696    0.08627850    0.04876581       3
Co     0.04148220    3.65771467    0.06625058       4
Co     0.01749644    0.10228526    3.61619980       5
Cr     0.03747330    0.03879819   -3.49231870       6
Ni    -1.74581883    0.07028807    1.78824307       7
Ni    -1.77243560    0.08905545   -1.71044011       8
Cr     0.01555638   -1.60480242    1.75040017       9
Co    -0.03093944   -1.63856054   -1.62928404      10
Ni    -1.71334977    1.83043813    0.05841471      11
Ni     1.77162045   -1.66381244    0.04191462      12
Cr     1.76428411    1.83896932    0.03552530      13
Cr     0.05257824    1.81811331    1.80575908      14
Cr     0.08512542    1.79095926   -1.73349845      15
Cr     1.74233921    0.10687854    1.77507012      16
Co     1.69620774    0.13156478   -1.66738015      17
Cr    -1.71818955   -1.69447188    0.00699695      18
