          18
Lattice="  24.8920   0.0000   0.0000   0.0000  24.8920   0.0000   0.0000   0.0000  24.8920 " ConfE="      -5934.5751" DelE="          0.0000"
Co    -1.91590019   -0.07843249   -1.63269246       1
Cr     1.67952944   -0.04694275    1.95954677       2
Co     1.72754000   -0.06483914   -5.17524647       3
Co     5.30095968   -0.04594279   -1.62254172       4
Co     1.74904844   -3.62723247   -1.61504126       5
Co     1.73234616    3.50252934   -1.63455534       6
Cr    -0.00190649   -1.80690070   -1.63261668       7
Co    -0.04970257    1.68742053   -1.67621743       8
Cr     1.71182372   -1.80069264    0.12139319       9
Co     1.69490090    1.67014625    0.10522849      10
Ni     1.72562940   -1.83491418   -3.39042114      11
Cr    -0.01574039   -0.04522028   -3.30372690      12
Co     3.45390846   -0.08800035    0.16207934      13
Cr     3.42564701   -0.05787515   -3.35690250      14
Cr     3.44016555   -1.74105082   -1.59914998      15
Cr     1.72057525    1.68533535   -3.32596615      16
Cr     3.40659059    1.58099068   -1.58104401      17
Cr     0.00000000    0.00000000    0.00000000      18
          18
Lattice="  24.8920   0.0000   0.0000   0.0000  24.8920   0.0000   0.0000   0.0000  24.8920 " ConfE="      -5934.2044" DelE="          0.3707"
Co    -1.80604147   -0.08040927   -1.62042924       1
Cr     1.65364953   -0.01959466    1.98935413       2
Co     1.71274605   -0.06411272   -5.18894080       3
Co     5.24753124   -0.05878366   -1.58594436       4
Co     1.74860747   -3.65746441   -1.63141948       5
Co     1.74095402    3.52086246   -1.64907800       6
Cr     0.01330055   -1.92655100   -1.70301884       7
Co    -0.09751398    1.81876490   -1.68038884       8
Cr     1.65224824   -1.97866691    0.22324337       9
Co     1.70031902    1.84777657    0.19165912      10
Ni     1.69682781   -1.83552757   -3.43152088      11
Cr    -0.07100432   -0.05482429   -3.39575714      12
Co     3.37336942   -0.08493526    0.22258231      13
Cr     3.45194034   -0.07651636   -3.40075730      14
Cr     3.25385689   -1.63482118   -1.57075566      15
Cr     1.66229399    1.61716055   -3.28407608      16
Cr     3.28539648    1.47249565   -1.55406406      17
Cr     0.76028556   -0.01547113   -0.65057308      18
          18
Lattice="  24.8920   0.0000   0.0000   0.0000  24.8920   0.0000   0.0000   0.0000  24.8920 " ConfE="      -5934.5389" DelE="          0.0362"
Co    -1.86808332   -0.08372506   -1.61275013       1
Cr     1.63787985   -0.03654768    1.90055202       2
Co     1.73315852   -0.06056245   -5.14158838       3
Co     5.26951843   -0.04661551   -1.61639263       4
Co     1.73095622   -3.58500809   -1.59582860       5
Co     1.70782495    3.45513706   -1.61161837       6
Cr    -0.07591056   -1.79851432   -1.64299645       7
Co    -0.09439532    1.66116001   -1.63198622       8
Cr     1.56860298   -1.77364304    0.17701370       9
Co     1.63423162    1.64075065    0.15400549      10
Ni     1.71549088   -1.83500733   -3.39471977      11
Cr    -0.09094168   -0.03954995   -3.42110295      12
Co     3.50622501   -0.09449416    0.18889768      13
Cr     3.50257867   -0.06959419   -3.37828974      14
Cr     3.49671371   -1.84290674   -1.58863668      15
Cr     1.70855922    1.71654855   -3.36123651      16
Cr     3.46437659    1.69503091   -1.57736669      17
Cr     1.66434654   -0.04275346   -1.54194887      18
