          18
Lattice="  24.8920   0.0000   0.0000   0.0000  24.8920   0.0000   0.0000   0.0000  24.8920 " ConfE="      -5944.8882" DelE="          0.0000"
Ni     0.00505863   -3.51198526    0.02326769       1
Ni    -3.54014719    0.04083670    0.02061252       2
Ni     3.56200807    0.03234424    0.02765510       3
Cr     0.01760718    0.00009052   -3.50030322       4
Co     0.03608700    0.02267712    3.56499940       5
Co     0.01390911    3.58431913    0.06501319       6
Ni    -1.76231191   -1.76946693    0.00270551       7
Ni     1.74170429   -0.01167868   -1.73962527       8
Ni     0.03748690   -1.74069659    1.80844423       9
Ni    -0.02684344    1.83651976   -1.74461909      10
Co     1.79233737   -1.78249494   -0.02479952      11
Ni    -1.75295821    0.02276554    1.80247935      12
Ni    -1.78752068    1.81724833    0.00491043      13
Cr    -1.73402400   -0.00700152   -1.76289555      14
Cr     0.06172122    1.83605759    1.73418929      15
Co     1.77574677    1.81120129    0.03791725      16
Cr     1.76243468    0.03810268    1.76813384      17
Ni     0.00000000    0.00000000    0.00000000      18
          18
Lattice="  24.8920   0.0000   0.0000   0.0000  24.8920   0.0000   0.0000   0.0000  24.8920 " ConfE="      -5944.2059" DelE="          0.6823"
Ni     0.01000013   -3.46748921    0.01130457       1
Ni    -3.58579819    0.05338306    0.03446123       2
Ni     3.62923778    0.04478529    0.03942699       3
Cr     0.03200953   -0.03718392   -3.39553206       4
Co     0.03080535    0.01120462    3.56247720       5
Co     0.00470329    3.59550401    0.05014852       6
Ni    -1.90920713   -1.81547323    0.06062105       7
Ni     1.91433960    0.04905261   -1.74872131       8
Ni     0.03872285   -1.69783789    1.74016088       9
Ni    -0.02840951    1.75804496   -1.70285432      10
Co     1.94706501   -1.82006263    0.00267341      11
Ni    -1.75023180    0.02677810    1.76582464      12
Ni    -1.81228890    1.82160138    0.00222721      13
Cr    -1.89076802    0.03995603   -1.77074570      14
Cr     0.05285709    1.77302326    1.67000812      15
Co     1.76054833    1.78359586    0.04170953      16
Cr     1.70688700    0.05271427    1.65401068      17
Ni     0.00265977   -0.67730830   -0.64622738      18
          18
Lattice="  24.8920   0.0000   0.0000   0.0000  24.8920   0.0000   0.0000   0.0000  24.8920 " ConfE="      -5945.1395" DelE="         -0.2513"
Ni     0.00831300   -3.53778351    0.05494468       1
Ni    -3.55833244    0.04578463    0.02628772       2
Ni     3.58933798    0.03864615    0.03706155       3
Cr     0.01613437    0.02097080   -3.54987250       4
Co     0.03327273    0.02512985    3.59120291       5
Co     0.01027779    3.59784666    0.05486407       6
Ni    -1.77527141   -1.74426921    0.03625465       7
Ni     1.74192998    0.01677651   -1.69819256       8
Ni     0.04380066   -1.69323570    1.76788690       9
Ni    -0.02670005    1.78148675   -1.72466965      10
Co     1.80111651   -1.73903550    0.03672885      11
Ni    -1.71692186    0.03839302    1.77241085      12
Ni    -1.77055415    1.79819770    0.00798850      13
Cr    -1.75218722    0.04314665   -1.73690274      14
Cr     0.06718991    1.80449034    1.71349958      15
Co     1.73417625    1.76457668    0.07079864      16
Cr     1.72218094    0.07368683    1.72943645      17
Ni    -0.01707223   -1.72413805   -1.69200905      18
