          18
Lattice="  24.8920   0.0000   0.0000   0.0000  24.8920   0.0000   0.0000   0.0000  24.8920 " ConfE="      -5949.7672" DelE="          0.0000"
Ni     0.00193861   -0.10972404   -3.58712204       1
Cr    -0.04010242    3.30484155    0.02278872       2
Cr    -3.51542044   -0.02071132   -0.01966353       3
Cr     3.56206805   -0.10572972   -0.02258009       4
Co     0.03423989   -3.65247829   -0.00112648       5
Co     0.03831687   -0.07980572    3.51472513       6
Ni     0.00204343    1.68910758   -1.80989304       7
Co    -1.79070099   -0.02444819   -1.76304502       8
Ni     1.81577495   -0.08592648   -1.81270365       9
Ni     0.01501215   -1.85251721   -1.80919111      10
Ni    -1.73785495   -1.83969098   -0.02674474      11
Co    -1.75597061   -0.04510571    1.70604776      12
Cr     0.05631573    1.58657195    1.70044279      13
Co     1.84168010    1.68065928   -0.04882784      14
Co     1.79638109   -1.86240636   -0.02908092      15
Cr     0.08158917   -1.71868220    1.69039802      16
Co     1.84093286   -0.06162586    1.73785199      17
Co     0.00000000    0.00000000    0.00000000      18
          18
Lattice="  24.8920   0.0000   0.0000   0.0000  24.8920   0.0000   0.0000   0.0000  24.8920 " ConfE="      -5949.4288" DelE="          0.3384"
Ni     0.01946222   -0.12341738   -3.64665686       1
Cr    -0.04486921    3.26515231    0.02215232       2
Cr    -3.47597613    0.01006181   -0.02099582       3
Cr     3.58288589   -0.09374215   -0.04008312       4
Co     0.02376619   -3.63358049   -0.00724369       5
Co     0.05452546   -0.09115830    3.58293602       6
Ni     0.04132843    1.68722674   -1.92993360       7
Co    -1.78474863   -0.05153939   -1.89992215       8
Ni     1.79605975   -0.08748843   -1.80597920       9
Ni     0.01608249   -1.81832114   -1.81436245      10
Ni    -1.71537601   -1.76260568   -0.03309879      11
Co    -1.80878654   -0.19894025    1.93728741      12
Cr     0.13607595    1.56414075    1.85868175      13
Co     1.73014845    1.63207008   -0.04089470      14
Co     1.77786537   -1.84335652   -0.03369056      15
Cr     0.10724400   -1.61970139    1.60250111      16
Co     1.82969378   -0.07041890    1.73141711      17
Co    -0.87669325    0.81172315    0.08597153      18
          18
Lattice="  24.8920   0.0000   0.0000   0.0000  24.8920   0.0000   0.0000   0.0000  24.8920 " ConfE="      -5949.7928" DelE="         -0.0256"
Ni     0.01686980   -0.11976473   -3.60590895       1
Cr    -0.02289698    3.34033348    0.01024646       2
Cr    -3.56812595   -0.03936952   -0.00857230       3
Cr     3.60800842   -0.10439553   -0.02441247       4
Co     0.03306891   -3.66038773   -0.00727032       5
Co     0.04424975   -0.08289889    3.54175885       6
Ni     0.02656511    1.64827947   -1.80364755       7
Co    -1.77410201   -0.04633945   -1.80811262       8
Ni     1.81843675   -0.09687061   -1.78454624       9
Ni     0.02434674   -1.83039739   -1.79134217      10
Ni    -1.71571231   -1.78753299   -0.02864488      11
Co    -1.70979544   -0.08428506    1.73069332      12
Cr     0.04815504    1.54704561    1.65107065      13
Co     1.78367046    1.64896792   -0.03187053      14
Co     1.79222597   -1.86394275   -0.01916168      15
Cr     0.10747301   -1.68449928    1.63636945      16
Co     1.79482798   -0.06683108    1.71220329      17
Co    -1.69053986    1.63169234   -0.01217545      18
