          18
Lattice="  24.8920   0.0000   0.0000   0.0000  24.8920   0.0000   0.0000   0.0000  24.8920 " ConfE="      -5949.6443" DelE="          0.0000"
Ni     0.03085461   -3.60456699   -0.01319757       1
Ni     0.00140004   -0.00393815    3.56858719       2
Cr     0.02607466    3.48158044   -0.02437457       3
Cr    -0.03737352   -0.04210811   -3.53631427       4
Cr     3.51606007    0.05066425   -0.03642942       5
Cr    -3.52249385   -0.04719909    0.02111209       6
Ni    -1.74798361    1.77682468   -0.01146766       7
Ni    -1.75301294    0.00710934   -1.77218765       8
Co     1.72114216    1.73588842   -0.04235886       9
Co     1.72392952   -0.05671407   -1.76181040      10
Cr    -0.00025734   -1.82394161    1.81387811      11
Cr    -0.01718697   -1.82241069   -1.77614450      12
Cr     0.04043148    1.83722685    1.77649403      13
Cr     1.75607878   -1.73931489   -0.00314051      14
Cr     1.75414948    0.02249204    1.75657968      15
Cr    -1.73876954   -1.78432901    0.03726028      16
Co    -1.77160010    0.02863510    1.79821788      17
Co     0.00000000    0.00000000    0.00000000      18
          18
Lattice="  24.8920   0.0000   0.0000   0.0000  24.8920   0.0000   0.0000   0.0000  24.8920 " ConfE="      -5948.3303" DelE="          1.3141"
Ni     0.01122440   -3.52606364   -0.03214392       1
Ni    -0.00900023   -0.00025328    3.57237353       2
Cr     0.02158276    3.42953473   -0.03404131       3
Cr    -0.04322926    0.00673179   -3.53755349       4
Cr     3.62539580    0.00615060   -0.06123087       5
Cr    -3.59360232   -0.09020635    0.04247249       6
Ni    -1.90498244    1.75864547    0.03584850       7
Ni    -1.88394866   -0.05378650   -1.77609413       8
Co     1.95266655    1.66961341    0.05125872       9
Co     1.89437251   -0.12290949   -1.81252785      10
Cr    -0.09060847   -1.92812549    1.94785868      11
Cr    -0.04097230   -1.72912673   -1.84980378      12
Cr     0.07560735    1.68479100    1.57622571      13
Cr     1.14057212   -1.12563304    0.10216983      14
Cr     1.82052190    0.07272536    1.87441315      15
Cr    -1.71011919   -1.71372188    0.01980683      16
Co    -1.72550662   -0.00847819    1.75441495      17
Co     0.05391018    1.09151686   -1.10398351      18
          18
Lattice="  24.8920   0.0000   0.0000   0.0000  24.8920   0.0000   0.0000   0.0000  24.8920 " ConfE="      -5949.0709" DelE="          0.5734"
Ni     0.03418465   -3.61630138   -0.01905430       1
Ni     0.00136624    0.00082360    3.57805268       2
Cr     0.01614114    3.54612216    0.00215334       3
Cr    -0.04842811   -0.05803983   -3.56934519       4
Cr     3.57188430    0.04021462   -0.03255269       5
Cr    -3.56234236   -0.05953161    0.03163956       6
Ni    -1.76090740    1.75408172    0.01006192       7
Ni    -1.77598207   -0.02196167   -1.74056109       8
Co     1.72463948    1.68053203    0.00276745       9
Co     1.71646655   -0.08412359   -1.72031292      10
Cr     0.00666199   -1.78781583    1.78187387      11
Cr    -0.01139467   -1.75136718   -1.73747689      12
Cr     0.05213142    1.79034307    1.69319522      13
Cr     1.71477245   -1.70582865    0.00135173      14
Cr     1.73315924    0.01991032    1.73509547      15
Cr    -1.69681068   -1.75781562    0.04683565      16
Co    -1.74239791    0.01768731    1.77296335      17
Co    -0.00639155    1.70445481   -1.73676033      18
