          18
Lattice="  24.8920   0.0000   0.0000   0.0000  24.8920   0.0000   0.0000   0.0000  24.8920 " ConfE="      -5940.7494" DelE="          0.0000"
Ni     0.02364470    0.01565765   -3.47173224       1
Co     3.59551840   -0.01143999    0.05793204       2
Cr     0.02944516   -3.56389215    0.03693851       3
Co     0.00934987    3.53422834    0.04866132       4
Co    -3.55348586   -0.01578954    0.05262265       5
Co     0.00182659    0.00014391    3.63546792       6
Ni     1.80507127   -1.79660519    0.03458363       7
Ni     1.78903248    0.00066531   -1.73221811       8
Co     1.76917240    1.74118337    0.04260681       9
Cr    -0.00906759   -1.82942250   -1.73913203      10
Ni    -1.75595759    1.78270344    0.00662037      11
Ni    -1.76054891   -1.79455721    0.06657647      12
Cr     1.80475910   -0.00926034    1.79873418      13
Cr    -1.76445675    0.03156140   -1.72107417      14
Cr     0.03215895   -1.73719263    1.84256870      15
Cr     0.00589621    1.71995013    1.81063915      16
Cr    -1.75076394   -0.02423697    1.79943285      17
Co     0.00000000    0.00000000    0.00000000      18
          18
Lattice="  24.8920   0.0000   0.0000   0.0000  24.8920   0.0000   0.0000   0.0000  24.8920 " ConfE="      -5939.9857" DelE="          0.7637"
Ni     0.02518005   -0.06304427   -3.42667658       1
Co     3.68021640   -0.02190681    0.07134354       2
Cr     0.03668695   -3.56923760    0.04495421       3
Co     0.00122022    3.45576762    0.03524713       4
Co    -3.63422676   -0.02963945    0.07351115       5
Co     0.00445116    0.01173695    3.60828715       6
Ni     1.82892861   -1.77539837    0.03596342       7
Ni     1.95940198   -0.08156735   -1.73893466       8
Co     1.87793193    1.73018387    0.04506104       9
Cr     0.00990518   -1.77158530   -1.62026878      10
Ni    -1.94312122    1.82650627    0.06564220      11
Ni    -1.77150834   -1.76488282    0.06868290      12
Cr     1.84796962    0.00308597    1.75496930      13
Cr    -1.95877280   -0.06879230   -1.72340628      14
Cr     0.03829854   -1.62066874    1.71476127      15
Cr    -0.01758291    1.47196637    1.58371078      16
Cr    -1.80581080   -0.02895076    1.76181659      17
Co    -0.07584345    0.84879041   -0.98295484      18
          18
Lattice="  24.8920   0.0000   0.0000   0.0000  24.8920   0.0000   0.0000   0.0000  24.8920 " ConfE="      -5940.4681" DelE="          0.2814"
Ni     0.02362670   -0.03915613   -3.53304760       1
Co     3.62468391   -0.01773648    0.05599870       2
Cr     0.03452502   -3.57865237    0.04206857       3
Co    -0.00003648    3.53155101    0.08232374       4
Co    -3.58525784   -0.02777142    0.04900710       5
Co     0.01173651    0.00005625    3.64399811       6
Ni     1.78710132   -1.76802846    0.04614414       7
Ni     1.77529255   -0.02514176   -1.70890216       8
Co     1.76714644    1.69794990    0.06497853       9
Cr    -0.00927813   -1.76358685   -1.68359669      10
Ni    -1.79698763    1.74345005    0.03702132      11
Ni    -1.72093575   -1.74752244    0.07685321      12
Cr     1.86703814   -0.03517655    1.80754768      13
Cr    -1.75704507   -0.01247836   -1.71444016      14
Cr     0.04329166   -1.64996343    1.79611806      15
Cr     0.01796188    1.44065597    1.61708302      16
Cr    -1.79545394   -0.05219456    1.81296482      17
Co    -0.02717782    1.70480805   -1.69893872      18
