          18
Lattice="  24.8920   0.0000   0.0000   0.0000  24.8920   0.0000   0.0000   0.0000  24.8920 " ConfE="      -5938.4936" DelE="          0.0000"
Cr     0.00424390    0.08176261   -3.37790840       1
Cr    -3.47308436    0.10410850    0.04164692       2
Ni     0.02976220   -3.50111401    0.08865848       3
Cr     0.03537620    3.67008737    0.12825090       4
Cr     0.03943096    0.13860166    3.61005328       5
Cr     3.60251557    0.08193962    0.11447553       6
Ni     0.02536334    1.88280649   -1.67790792       7
Co    -1.73839478   -1.66168110    0.05359840       8
Co     0.04052487   -1.70867593   -1.71323244       9
Cr    -1.74821491    1.77821323    0.04802172      10
Ni    -1.77404070    0.05123015    1.88589526      11
Cr     1.85249912    0.10425277   -1.66406772      12
Co     0.05121203   -1.69086487    1.88710712      13
Co     1.83967470   -1.73871987    0.06691600      14
Co     1.80924126    1.88135329    0.10506493      15
Cr    -0.00449027    1.79821746    1.78891082      16
Co     1.82532082    0.09694219    1.84194853      17
Cr     0.00000000    0.00000000    0.00000000      18
          18
Lattice="  24.8920   0.0000   0.0000   0.0000  24.8920   0.0000   0.0000   0.0000  24.8920 " ConfE="      -5933.5487" DelE="          4.9449"
Cr    -0.01472277    0.05024250   -3.46685796       1
Cr    -3.49891357    0.11840291    0.05620637       2
Ni    -0.00903742   -3.51863657    0.10572062       3
Cr    -0.03352901    3.68157347    0.18135848       4
Cr     0.03065367    0.13197883    3.64249181       5
Cr     3.56549585    0.09502090    0.11139257       6
Ni     0.05166172    1.84375743   -1.68143690       7
Co    -1.76059578   -1.64484600    0.08585514       8
Co    -0.08239373   -1.68274699   -1.67530432       9
Cr    -1.68132353    1.72021176    0.04533366      10
Ni    -1.74825332    0.04370082    1.86816644      11
Cr     2.73480150    1.83392370   -1.69674504      12
Co     0.02261478   -1.69451832    1.92907231      13
Co     1.76501131   -1.74947686    0.13904457      14
Co     1.63161426    1.85122802    0.23959799      15
Cr    -0.04681464    1.76689616    1.81898524      16
Co     1.79109847    0.06312122    1.88492578      17
Cr     1.61653809   -0.18708306   -1.53522530      18
          18
Lattice="  24.8920   0.0000   0.0000   0.0000  24.8920   0.0000   0.0000   0.0000  24.8920 " ConfE="      -5934.1036" DelE="          4.3900"
Cr    -0.01229570    0.10842858   -3.44183315       1
Cr    -3.50602845    0.11014663    0.05701372       2
Ni     0.00158650   -3.51872442    0.10874844       3
Cr    -0.01592213    3.68019991    0.15442685       4
Cr     0.03343877    0.15266048    3.62299001       5
Cr     3.55486647    0.15319963    0.10149259       6
Ni    -0.00989965    1.82723288   -1.64792576       7
Co    -1.73449832   -1.61825057    0.05720733       8
Co     0.02146804   -1.63476170   -1.66359738       9
Cr    -1.72670937    1.73434331    0.05523670      10
Ni    -1.74661253    0.05030360    1.86264101      11
Cr     3.27973094    1.98577411   -1.70947666      12
Co     0.04198550   -1.67653101    1.90092330      13
Co     1.79723985   -1.71588822    0.09399139      14
Co     1.71067666    1.90336652    0.12989253      15
Cr    -0.02008068    1.77485648    1.76350340      16
Co     1.76940867    0.11564967    1.83547914      17
Cr     1.77565664    0.03811214   -1.60248392      18
