          18
Lattice="  24.8920   0.0000   0.0000   0.0000  24.8920   0.0000   0.0000   0.0000  24.8920 " ConfE="      -5934.5540" DelE="          0.0000"
Co    -3.43048431   -0.00533801   -0.09609008       1
Cr     0.01282611   -0.04504637    3.22178614       2
Co     3.69922519   -0.00781907   -0.12534901       3
Cr     0.05114768   -0.03272799   -3.72438887       4
Cr     0.03942420   -3.58408360   -0.19055458       5
Co     0.07671327    3.57067686   -0.15142818       6
Co    -1.69496501   -1.77327664   -0.10422934       7
Cr    -1.71311235    1.73655265   -0.07172077       8
Cr     0.04873959   -1.80761360    1.59082654       9
Co     0.08092975    1.78689844    1.62705996      10
Ni    -1.69209062   -0.01285651   -1.92538128      11
Ni     1.92583558   -0.06126999    1.64328886      12
Cr     1.88510948   -0.02513445   -1.85110252      13
Ni     0.08641107   -1.78191843   -1.90070546      14
Cr     0.06655412    1.73893451   -1.82186404      15
Co     1.87185424   -1.78498383   -0.15562035      16
Cr     1.86704285    1.75580888   -0.10811519      17
Cr     0.00000000    0.00000000    0.00000000      18
          18
Lattice="  24.8920   0.0000   0.0000   0.0000  24.8920   0.0000   0.0000   0.0000  24.8920 " ConfE="      -5934.0991" DelE="          0.4549"
Co    -3.37256820   -0.00819490   -0.05915512       1
Cr     0.09309169   -0.04947494    3.32049176       2
Co     3.68869608   -0.02052766   -0.11557083       3
Cr     0.01132643   -0.04212876   -3.69062357       4
Cr     0.04865138   -3.65095929   -0.21057957       5
Co     0.09230221    3.63777613   -0.15817061       6
Co    -1.71460579   -1.91290405   -0.14381595       7
Cr    -1.74855876    1.92751237   -0.06595533       8
Cr     0.14201019   -1.94506344    1.60974000       9
Co     0.16533201    1.91700140    1.65683417      10
Ni    -1.67223222   -0.01008548   -1.84450155      11
Ni     1.86137965   -0.07161451    1.63101199      12
Cr     1.78553398   -0.05178507   -1.77120854      13
Ni     0.05551728   -1.79733121   -1.86995170      14
Cr     0.04278495    1.69779908   -1.73504676      15
Co     1.82550868   -1.78288706   -0.14111118      16
Cr     1.76064340    1.68559170   -0.08754880      17
Cr    -0.64266994   -0.00072906    0.57923226      18
          18
Lattice="  24.8920   0.0000   0.0000   0.0000  24.8920   0.0000   0.0000   0.0000  24.8920 " ConfE="      -5934.6731" DelE="         -0.1191"
Co    -3.49123625   -0.00832681   -0.14732043       1
Cr     0.08319657   -0.03657177    3.39906332       2
Co     3.69990631   -0.00673974   -0.12522178       3
Cr     0.04328853   -0.05713106   -3.74226339       4
Cr     0.04626680   -3.58863474   -0.19432200       5
Co     0.08133346    3.60069696   -0.15938558       6
Co    -1.65872529   -1.77765757   -0.14614781       7
Cr    -1.60955117    1.72794401   -0.14190215       8
Cr     0.10526046   -1.77788455    1.54876158       9
Co     0.09348216    1.74488550    1.60639068      10
Ni    -1.66579919   -0.02405473   -1.90480619      11
Ni     1.86407454   -0.06240638    1.62907948      12
Cr     1.84852456   -0.04436848   -1.82582833      13
Ni     0.09295107   -1.79049512   -1.91379215      14
Cr     0.08005630    1.69504469   -1.83594576      15
Co     1.84804675   -1.76825351   -0.16447017      16
Cr     1.73257728    1.68000779   -0.11390333      17
Cr    -1.61168171   -0.05759756    1.52948414      18
