          18
Lattice="  24.8920   0.0000   0.0000   0.0000  24.8920   0.0000   0.0000   0.0000  24.8920 " ConfE="      -5948.6517" DelE="          0.0000"
Ni     3.50772808   -0.04627452   -0.02339633       1
Ni    -0.02503353   -0.01403255   -3.57092085       2
Ni    -0.00155271   -0.01289295    3.51955783       3
Cr     0.13062038   -3.41325635   -0.03606872       4
Cr    -3.55109359   -0.00636683   -0.04869606       5
Co    -0.01475979    3.53695070    0.00007240       6
Ni     1.76872145   -0.03765569   -1.77013486       7
Ni     1.77142766   -0.04955295    1.72831528       8
Ni    -1.79969184   -1.77310886   -0.03488171       9
Ni    -1.78451135   -0.00586161   -1.81264714      10
Ni    -1.79159897   -0.00689911    1.76253678      11
Ni    -0.00924145    1.76256707   -1.79949827      12
Co    -0.00346123   -1.81349312    1.73094966      13
Co     0.01915097   -1.80458526   -1.74186224      14
Cr     1.70685007    1.78888256   -0.01303976      15
Cr    -1.76917159    1.77800215   -0.01966022      16
Cr     0.00624570    1.74344339    1.73437799      17
Co     0.00000000    0.00000000    0.00000000      18
          18
Lattice="  24.8920   0.0000   0.0000   0.0000  24.8920   0.0000   0.0000   0.0000  24.8920 " ConfE="      -5947.8933" DelE="          0.7584"
Ni     3.47344320   -0.05413189   -0.02973532       1
Ni    -0.03737603    0.01613189   -3.64050961       2
Ni    -0.00903434    0.00368878    3.57477494       3
Cr     0.15958962   -3.41600821   -0.03308168       4
Cr    -3.55792275   -0.03070086   -0.05415477       5
Co    -0.01197424    3.52328274   -0.00316915       6
Ni     1.79127671    0.01407768   -1.92840342       7
Ni     1.80900657   -0.00652709    1.87941638       8
Ni    -1.68613696   -1.72978680   -0.04443192       9
Ni    -1.76206755    0.00194624   -1.80924988      10
Ni    -1.75159493   -0.00710060    1.74781378      11
Ni    -0.00521740    1.72108430   -1.79218422      12
Co    -0.06922950   -1.83402230    1.90410962      13
Co    -0.09546620   -1.82072891   -1.98090095      14
Cr     1.63171323    1.64028583   -0.02448181      15
Cr    -1.70040457    1.72088918   -0.01519413      16
Cr     0.02112640    1.67688815    1.70549040      17
Co     0.94852121   -1.04928893   -0.03342637      18
          18
Lattice="  24.8920   0.0000   0.0000   0.0000  24.8920   0.0000   0.0000   0.0000  24.8920 " ConfE="      -5948.6287" DelE="          0.0230"
Ni     3.54592626   -0.01137119   -0.01452301       1
Ni    -0.03548493   -0.00100811   -3.58451392       2
Ni    -0.00524126   -0.00330567    3.53147709       3
Cr     0.04435114   -3.51896962   -0.03316249       4
Cr    -3.58823494   -0.01576226   -0.05367938       5
Co    -0.01927064    3.56331185    0.00377309       6
Ni     1.74421547   -0.01132164   -1.76183841       7
Ni     1.73718688   -0.02224289    1.71532883       8
Ni    -1.75173121   -1.74827171   -0.03685996       9
Ni    -1.77471749    0.00304218   -1.78302151      10
Ni    -1.76218679    0.00293334    1.72763908      11
Ni    -0.01292760    1.73865149   -1.74885984      12
Co    -0.02108221   -1.80221345    1.74324315      13
Co    -0.01976828   -1.79472546   -1.78726904      14
Cr     1.67950794    1.75705138   -0.00016230      15
Cr    -1.75181325    1.77509978   -0.00435584      16
Cr     0.00192750    1.74084638    1.71021854      17
Co     1.74394086   -1.81005002   -0.04424898      18
