          18
Lattice="  24.8920   0.0000   0.0000   0.0000  24.8920   0.0000   0.0000   0.0000  24.8920 " ConfE="      -5922.8122" DelE="          0.0000"
Ni     0.01921511   -3.48895005    0.00908503       1
Co     3.48909054   -0.04666322    0.04184490       2
Co     0.00418270    0.05198237   -3.50510379       3
Co     0.01274222    0.02425058    3.54875626       4
Cr     0.02665457    3.57764394    0.03119390       5
Co    -3.56467253    0.03813771    0.03572238       6
Ni     1.77546892   -0.03535164   -1.73786375       7
Cr     1.70333378   -0.05020233    1.75509895       8
Cr    -0.00391210   -1.73103982   -1.75690170       9
Co     0.02900419   -1.73149531    1.75914756      10
Co     1.76187961    1.82428884   -0.01636878      11
Co    -1.82303542   -1.73954100    0.02896612      12
Cr    -0.00399691    1.78353959   -1.76789141      13
Co     0.02293243    1.81463176    1.76551506      14
Cr    -1.78064967    0.03896124   -1.72918990      15
Cr    -1.70338432    0.03522108    1.80329662      16
Co    -1.76851518    1.81496772    0.02324356      17
Ni     0.00000000    0.00000000    0.00000000      18
          18
Lattice="  24.8920   0.0000   0.0000   0.0000  24.8920   0.0000   0.0000   0.0000  24.8920 " ConfE="      -5922.0647" DelE="          0.7475"
Ni     0.04524330   -3.46089837    0.00357145       1
Co     3.45786730   -0.03161518    0.02700652       2
Co    -0.00768920    0.06091231   -3.54767488       3
Co    -0.01597489    0.03357997    3.61831405       4
Cr     0.03840916    3.59678674    0.02954885       5
Co    -3.56823675    0.02352295    0.05425748       6
Ni     1.83485436    0.03518625   -1.90331756       7
Cr     1.66193896    0.13016708    1.95871207       8
Cr    -0.00654412   -1.73895110   -1.89976602       9
Co    -0.08550399   -1.78452768    1.95306153      10
Co     1.71935618    1.76578677   -0.02786851      11
Co    -1.74076386   -1.70105295    0.00798599      12
Cr     0.02660627    1.71965760   -1.71950663      13
Co     0.01009136    1.79437578    1.76165387      14
Cr    -1.67089867    0.02767639   -1.60749701      15
Cr    -1.58887362   -0.00637496    1.72579150      16
Co    -1.71637017    1.75969101    0.02729642      17
Ni     0.97410843   -0.95442939    0.05739492      18
          18
Lattice="  24.8920   0.0000   0.0000   0.0000  24.8920   0.0000   0.0000   0.0000  24.8920 " ConfE="      -5922.6237" DelE="          0.1885"
Ni    -0.01625709   -3.53720447    0.00583135       1
Co     3.54794831    0.02008805    0.01045639       2
Co    -0.00957798    0.06581771   -3.52390681       3
Co     0.01345763    0.02883827    3.57700834       4
Cr     0.02971029    3.60903777    0.02391712       5
Co    -3.59501770    0.03579635    0.04748171       6
Ni     1.75357165    0.00541745   -1.74198629       7
Cr     1.62231473    0.01606339    1.73224449       8
Cr    -0.04051356   -1.65154134   -1.73550383       9
Co    -0.01266099   -1.70124057    1.75486141      10
Co     1.72540923    1.78876746   -0.02068910      11
Co    -1.76992491   -1.69622225    0.01015168      12
Cr    -0.01041533    1.73780631   -1.72015688      13
Co     0.01639625    1.78265938    1.73196932      14
Cr    -1.73268500    0.05356148   -1.60871772      15
Cr    -1.62571500    0.03098021    1.71964513      16
Co    -1.74278712    1.78223060    0.02416430      17
Ni     1.73740251   -1.73889061    0.00592790      18
