          18
Lattice="  24.8920   0.0000   0.0000   0.0000  24.8920   0.0000   0.0000   0.0000  24.8920 " ConfE="      -5947.8862" DelE="          0.0000"
Ni     0.02422044    3.50664602    0.00382252       1
Ni    -3.42754365    0.07425317   -0.01804391       2
Ni     0.05803474    0.00477102   -3.55170629       3
Ni     0.08690616    0.03138054    3.54077590       4
Ni     0.04010948   -3.57101946   -0.01470266       5
Ni     3.59479096   -0.03388089   -0.03027037       6
Ni     0.00429128    1.76357807   -1.75060013       7
Ni     1.82685793    1.76472265   -0.01518992       8
Co    -1.73425076   -0.02051303   -1.77025242       9
Co    -1.67359854    0.06692486    1.70327094      10
Cr     0.02158005    1.78813514    1.74060308      11
Ni     1.80813065   -0.01670941   -1.79106009      12
Ni     0.06246252   -1.77459385    1.75087737      13
Cr    -1.71921681   -1.80112915   -0.00973688      14
Co     1.76960589   -1.76993111   -0.02666869      15
Co    -0.02490066   -1.79303917   -1.78957544      16
Co     1.84176424    0.00081258    1.76611842      17
Cr     0.00000000    0.00000000    0.00000000      18
          18
Lattice="  24.8920   0.0000   0.0000   0.0000  24.8920   0.0000   0.0000   0.0000  24.8920 " ConfE="      -5947.0409" DelE="          0.8453"
Ni     0.02482748    3.47044461   -0.00877696       1
Ni    -3.38578701    0.05136369   -0.01282116       2
Ni     0.06967466   -0.01749987   -3.59386730       3
Ni     0.07796299    0.02485754    3.56675355       4
Ni     0.03956639   -3.58135205   -0.01447425       5
Ni     3.59859611   -0.02702467   -0.03147311       6
Ni     0.07686789    1.79854496   -1.88988841       7
Ni     1.77743365    1.73021760   -0.02022558       8
Co    -1.73144082   -0.04425547   -1.85976466       9
Co    -1.77010653   -0.00958142    1.86368163      10
Cr     0.09023343    1.81921287    1.85564235      11
Ni     1.78601780   -0.01754190   -1.79142853      12
Ni     0.02249777   -1.70764166    1.70172822      13
Cr    -1.70954681   -1.80382471   -0.01684410      14
Co     1.72819276   -1.72156753   -0.02740894      15
Co    -0.05320277   -1.76192121   -1.75028181      16
Co     1.81514268    0.01251278    1.76178051      17
Cr    -0.74964537    0.78044860    0.04121934      18
          18
Lattice="  24.8920   0.0000   0.0000   0.0000  24.8920   0.0000   0.0000   0.0000  24.8920 " ConfE="      -5947.5865" DelE="          0.2997"
Ni     0.06679890    3.55042371   -0.00610485       1
Ni    -3.48966628    0.01835323   -0.00731960       2
Ni     0.07149536   -0.00737125   -3.56900094       3
Ni     0.08218310    0.01925955    3.55483028       4
Ni     0.04401595   -3.58885412   -0.01815008       5
Ni     3.60970432   -0.03557137   -0.02865944       6
Ni     0.04745917    1.73335620   -1.75727344       7
Ni     1.78475669    1.72678356   -0.00602910       8
Co    -1.71365378   -0.03845161   -1.74970771       9
Co    -1.66820232    0.03603062    1.69022330      10
Cr     0.05801280    1.77647567    1.75997275      11
Ni     1.81864960   -0.03378573   -1.79092658      12
Ni     0.05521289   -1.74535364    1.69800110      13
Cr    -1.67669182   -1.75607736   -0.06037627      14
Co     1.76603789   -1.75853512   -0.03451180      15
Co    -0.02869592   -1.78552153   -1.76711208      16
Co     1.83540759   -0.00597064    1.77012370      17
Cr    -1.67349898    1.73203927   -0.00532208      18
