          18
Lattice="  24.8920   0.0000   0.0000   0.0000  24.8920   0.0000   0.0000   0.0000  24.8920 " ConfE="      -5938.4113" DelE="          0.0000"
Ni    -0.04511434    0.07553642    3.56476303       1
Ni    -3.57086143    0.08622524    0.06129512       2
Ni    -0.06329694    0.01519954   -3.53676752       3
Co    -0.00578083    3.58283311    0.03531832       4
Cr     3.48918903   -0.01168615    0.10189251       5
Cr    -0.09685090   -3.49626207    0.05009514       6
Ni    -1.77017510    0.11247390    1.79795094       7
Ni    -1.74785913    1.84258894    0.07861107       8
Co     1.70402258    0.01862863    1.77143960       9
Co     1.75107025    1.77789821    0.01346652      10
Co    -0.00875131   -1.78792651    1.78784565      11
Cr     1.72738385   -1.75539465    0.03830850      12
Co    -1.78779561   -1.74182465    0.02174910      13
Cr     1.73258621   -0.00648130   -1.71782271      14
Cr    -0.08975248   -1.75210033   -1.75951923      15
Co    -0.01414470    1.79350551   -1.75373766      16
Cr    -1.78891347    0.09574109   -1.68022573      17
Co     0.00000000    0.00000000    0.00000000      18
          18
Lattice="  24.8920   0.0000   0.0000   0.0000  24.8920   0.0000   0.0000   0.0000  24.8920 " ConfE="      -5936.8495" DelE="          1.5618"
Ni    -0.05402886    0.08367030    3.54031970       1
Ni    -3.57137942    0.05392370    0.04918121       2
Ni    -0.08047973    0.02276439   -3.55657182       3
Co    -0.02978010    3.54989479    0.05868764       4
Cr     3.53726665   -0.04676425    0.02475530       5
Cr    -0.10884490   -3.51295420    0.07978551       6
Ni    -1.89666150    0.08212314    1.84826378       7
Ni    -1.93712748    1.90580707    0.05044588       8
Co     1.83995166   -0.05776059    1.79630643       9
Co     1.95902856    1.84711411   -0.08463545      10
Co     0.06975772   -1.80309082    1.94089379      11
Cr     1.69867738   -1.75773701    0.06432442      12
Co    -0.89896642   -1.08718944   -0.07122116      13
Cr     1.30856089   -0.00491485   -1.44152441      14
Cr    -0.09056160   -1.90157446   -1.99796069      15
Co    -0.04623308    1.81943493   -1.66434024      16
Cr    -1.77458431    0.17823559   -1.71699670      17
Co     0.06051921    1.03503937    0.86417920      18
          18
Lattice="  24.8920   0.0000   0.0000   0.0000  24.8920   0.0000   0.0000   0.0000  24.8920 " ConfE="      -5937.9129" DelE="          0.4984"
Ni    -0.05390785    0.05391793    3.57097514       1
Ni    -3.56453477    0.06306209    0.05790184       2
Ni    -0.06980411    0.00959207   -3.53390552       3
Co    -0.01336090    3.61051032    0.01652482       4
Cr     3.51202370   -0.01529324    0.09201926       5
Cr    -0.13205303   -3.46787014    0.07907838       6
Ni    -1.81805893    0.06319229    1.78707232       7
Ni    -1.80037034    1.85845883    0.03499594       8
Co     1.69871093   -0.00042997    1.76305421       9
Co     1.74669561    1.76729875   -0.00036872      10
Co    -0.05356786   -1.78529779    1.73551301      11
Cr     1.76605438   -1.76418526    0.04725256      12
Co    -0.07518915   -0.05625553   -0.02362638      13
Cr     1.71598087   -0.02327768   -1.71866646      14
Cr    -0.11539654   -1.74025275   -1.70752016      15
Co    -0.01679427    1.79340453   -1.73645710      16
Cr    -1.78285830    0.06844011   -1.68218603      17
Co    -0.06214416    1.84796757    1.76437836      18
