          18
Lattice="  24.8920   0.0000   0.0000   0.0000  24.8920   0.0000   0.0000   0.0000  24.8920 " ConfE="      -5938.0965" DelE="          0.0000"
Ni    -0.00758344    0.01219083   -3.44106889       1
Ni    -0.04476633    3.56439402    0.07611704       2
Ni    -0.02609187   -3.53864720    0.06748193       3
Ni    -0.04860102   -0.01108896    3.63538821       4
Co     3.48252222    0.01373238    0.02390582       5
Co    -3.59702744    0.00192180    0.05591695       6
Ni    -1.82061901    1.79231480    0.06816153       7
Co    -0.05161343    1.79390378   -1.66771635       8
Co     0.02761570   -1.74910911   -1.68535198       9
Cr     1.72628708    1.68776282   -0.04295848      10
Cr     1.75843646   -1.64968469    0.00554906      11
Cr    -1.87555789   -0.02390142   -1.66831648      12
Co    -1.78968642   -0.03618831    1.79034781      13
Cr    -1.83818225   -1.74593459    0.04811446      14
Cr     1.72412175   -0.00395702    1.80384947      15
Co     0.02598953    1.70666447    1.78788706      16
Cr    -0.08071081   -1.70278856    1.78417182      17
Co     0.00000000    0.00000000    0.00000000      18
          18
Lattice="  24.8920   0.0000   0.0000   0.0000  24.8920   0.0000   0.0000   0.0000  24.8920 " ConfE="      -5937.0370" DelE="          1.0595"
Ni    -0.00972398    0.01537012   -3.38709330       1
Ni    -0.06610615    3.67292502    0.08621602       2
Ni    -0.03407525   -3.63374273    0.08362254       3
Ni    -0.06011436   -0.00010951    3.56924206       4
Co     3.40266549    0.02307095    0.02812276       5
Co    -3.51097492    0.01473527    0.09944953       6
Ni    -1.83103081    1.91073872    0.06102712       7
Co    -0.12525815    1.93128293   -1.67839483       8
Co    -0.03955868   -1.92692908   -1.70061340       9
Cr     1.71882061    1.92803757    0.03309272      10
Cr     1.75200879   -1.84980638    0.08268189      11
Cr    -1.75042654   -0.03578979   -1.53225406      12
Co    -1.05169459   -0.07245659    1.11151261      13
Cr    -1.84043861   -1.86704682    0.02452811      14
Cr     1.63543764    0.00874598    1.71250190      15
Co     0.07415765    1.84277692    1.77726932      16
Cr     0.01780053   -1.87674422    1.81295804      17
Co     0.81532309    0.00845412   -0.74216875      18
          18
Lattice="  24.8920   0.0000   0.0000   0.0000  24.8920   0.0000   0.0000   0.0000  24.8920 " ConfE="      -5938.2281" DelE="         -0.1316"
Ni    -0.02786035    0.01037419   -3.46718660       1
Ni    -0.06383122    3.57408458    0.08475437       2
Ni    -0.06274960   -3.54223976    0.09220948       3
Ni    -0.06322634   -0.00811332    3.60933682       4
Co     3.53097006    0.01225823    0.06934256       5
Co    -3.55855742    0.00537328    0.08661404       6
Ni    -1.82687025    1.77965978    0.09976219       7
Co    -0.07473162    1.78937816   -1.66425036       8
Co    -0.03601750   -1.77599209   -1.66908920       9
Cr     1.69793522    1.75147778    0.01390715      10
Cr     1.74775764   -1.72491484    0.08588902      11
Cr    -1.85430839   -0.02377354   -1.68612320      12
Co    -0.11061066   -0.02757132    0.10947813      13
Cr    -1.87680213   -1.71437499    0.09520822      14
Cr     1.74932501   -0.00169804    1.78263821      15
Co     0.01366160    1.70049766    1.79541206      16
Cr    -0.14862764   -1.68775582    1.81466519      17
Co     1.71548780   -0.03275501   -1.62970388      18
