          18
Lattice="  24.8920   0.0000   0.0000   0.0000  24.8920   0.0000   0.0000   0.0000  24.8920 " ConfE="      -5937.0958" DelE="          0.0000"
Ni     3.53570450   -0.00988654   -0.03831575       1
Ni     0.05103088   -3.49272044   -0.05515326       2
Ni    -0.00874624    3.53582848   -0.05363571       3
Co    -3.53805063    0.02421582   -0.02507528       4
Cr     0.12531446    0.05867301    3.47803228       5
Co     0.02286949    0.02071746   -3.58337466       6
Ni     0.01439276   -1.76676466    1.71358329       7
Ni     1.77369132   -0.02191920   -1.76725273       8
Ni     0.02209845   -1.74120495   -1.81894102       9
Ni     1.76264985    1.78943974   -0.04494589      10
Co     1.78365528   -0.03444247    1.73756359      11
Ni    -1.75957071    0.01137043   -1.80643479      12
Co    -0.00912593    1.72724555    1.74968455      13
Co    -1.77497667    1.75720033   -0.04176372      14
Cr     0.01920128    1.74866112   -1.85964876      15
Co    -1.79368101   -1.75088293   -0.04340599      16
Cr    -1.69574576    0.01957182    1.73454349      17
Co     0.00000000    0.00000000    0.00000000      18
          18
Lattice="  24.8920   0.0000   0.0000   0.0000  24.8920   0.0000   0.0000   0.0000  24.8920 " ConfE="      -5936.1097" DelE="          0.9861"
Ni     3.50316476   -0.02218396   -0.05015366       1
Ni     0.05900451   -3.44268057   -0.05110794       2
Ni    -0.00064745    3.53028280   -0.05141481       3
Co    -3.52701287    0.01786892   -0.02488027       4
Cr     0.09541505    0.06140857    3.60324710       5
Co     0.01789790    0.04258624   -3.65906802       6
Ni    -0.03891127   -1.78543677    1.91155716       7
Ni     1.81559720    0.01970831   -1.94911823       8
Ni    -0.01173124   -1.77407587   -1.98047613       9
Ni     1.71497817    1.68918964   -0.04776847      10
Co     1.82773624    0.00092603    1.90719419      11
Ni    -1.69567863   -0.00146036   -1.78611669      12
Co    -0.00975300    1.65972064    1.73889000      13
Co    -1.71589192    1.70291431   -0.02574172      14
Cr     0.02700589    1.71806202   -1.85120439      15
Co    -1.70247930   -1.70223375   -0.00228300      16
Cr    -1.64483950    0.01277228    1.71881725      17
Co     0.88922962   -0.88317631   -0.00910486      18
          18
Lattice="  24.8920   0.0000   0.0000   0.0000  24.8920   0.0000   0.0000   0.0000  24.8920 " ConfE="      -5936.9831" DelE="          0.1127"
Ni     3.57120009    0.01397687   -0.04939732       1
Ni    -0.00091597   -3.53553042   -0.06452174       2
Ni    -0.00952410    3.54110829   -0.05316908       3
Co    -3.55093120    0.02777578   -0.02967722       4
Cr     0.12199722    0.06180965    3.54715880       5
Co     0.01751525    0.02250766   -3.60835047       6
Ni    -0.01555288   -1.71111237    1.70234543       7
Ni     1.73755638    0.00988230   -1.78274924       8
Ni     0.00656885   -1.73061611   -1.81832320       9
Ni     1.72298922    1.73871761   -0.04865084      10
Co     1.77680252   -0.01495684    1.74655197      11
Ni    -1.72650440    0.01314823   -1.78789996      12
Co    -0.02695436    1.66024563    1.71561062      13
Co    -1.73409669    1.71163569   -0.03446668      14
Cr     0.00510014    1.76210760   -1.86748385      15
Co    -1.76767658   -1.72075198   -0.03759560      16
Cr    -1.69923273    0.02915218    1.73904769      17
Co     1.78616265   -1.76418133   -0.02460696      18
