          18
Lattice="  24.8920   0.0000   0.0000   0.0000  24.8920   0.0000   0.0000   0.0000  24.8920 " ConfE="      -5937.9522" DelE="          0.0000"
Co    -3.56789511    0.03827790    0.00164344       1
Cr    -0.03679757   -0.07086163    3.56675504       2
Cr     3.50581541   -0.00485145   -0.00518413       3
Co     0.02579664   -0.04917448   -3.60241229       4
Co     0.01572151   -3.52592732    0.00274741       5
Ni    -0.00439514    3.55357030   -0.03774999       6
Ni    -1.76419871   -1.73304122    0.01903231       7
Ni    -1.79856492    1.73997367   -0.01526729       8
Co     0.02015335   -1.72821833    1.76035714       9
Ni    -0.06392274    1.71618511    1.78204237      10
Ni    -1.78048700   -0.00380328   -1.82133579      11
Cr     1.79226820    0.00068361    1.85422322      12
Ni     1.76051374    0.00380259   -1.79447960      13
Cr     0.00438035   -1.75810906   -1.79844380      14
Ni    -0.01633450    1.76406555   -1.83045900      15
Cr     1.76744794   -1.80914236    0.04768095      16
Ni     1.74804920    1.76885237   -0.01952725      17
Ni     0.00000000    0.00000000    0.00000000      18
          18
Lattice="  24.8920   0.0000   0.0000   0.0000  24.8920   0.0000   0.0000   0.0000  24.8920 " ConfE="      -5937.2044" DelE="          0.7478"
Co    -3.53722023    0.02303355    0.01615425       1
Cr    -0.05481652   -0.05658347    3.48502049       2
Cr     3.51161028    0.00407477   -0.00295742       3
Co     0.01594015   -0.04417678   -3.61179005       4
Co     0.00003638   -3.58697368   -0.01402833       5
Ni     0.00681653    3.61943839   -0.05254509       6
Ni    -1.80679346   -1.88173470   -0.03181598       7
Ni    -1.81262257    1.85563292   -0.04733876       8
Co     0.09796127   -1.99436444    1.80809227       9
Ni     0.00831794    1.91637520    1.81065699      10
Ni    -1.74423096   -0.00053766   -1.73825212      11
Cr     1.71633570    0.01082391    1.80826335      12
Ni     1.69397775    0.00815357   -1.73572422      13
Cr    -0.01668513   -1.73080260   -1.74275733      14
Ni    -0.03272469    1.78275434   -1.81299498      15
Cr     1.70175247   -1.76846270    0.05533391      16
Ni     1.71067114    1.76838345   -0.01503376      17
Ni    -0.70839458   -0.04489466    0.84207684      18
          18
Lattice="  24.8920   0.0000   0.0000   0.0000  24.8920   0.0000   0.0000   0.0000  24.8920 " ConfE="      -5938.0856" DelE="         -0.1334"
Co    -3.59341985    0.03519412   -0.03301033       1
Cr     0.00987874   -0.06627460    3.62887940       2
Cr     3.52490321    0.00061038   -0.00955948       3
Co     0.02492135   -0.04955066   -3.62297158       4
Co     0.02173967   -3.55250690   -0.00729052       5
Ni     0.00278148    3.56427675   -0.04041707       6
Ni    -1.72487137   -1.73413664   -0.02104698       7
Ni    -1.77367719    1.73585526   -0.03603670       8
Co     0.07385586   -1.69890536    1.69284226       9
Ni    -0.01131642    1.73074311    1.76510244      10
Ni    -1.75619011   -0.00899962   -1.79960278      11
Cr     1.75555086   -0.01439546    1.83248316      12
Ni     1.72379211   -0.00645877   -1.76306711      13
Cr     0.01498787   -1.73044412   -1.78373010      14
Ni    -0.02274051    1.74707065   -1.81842755      15
Cr     1.75425454   -1.77458460    0.03896063      16
Ni     1.71452217    1.71835327   -0.01311398      17
Ni    -1.73283560   -0.00032846    1.74193049      18
