          18
Lattice="  24.8920   0.0000   0.0000   0.0000  24.8920   0.0000   0.0000   0.0000  24.8920 " ConfE="      -5942.8703" DelE="          0.0000"
Ni    -0.03758426   -0.00898519    3.55994093       1
Co    -0.02860008   -3.50876775    0.02238089       2
Ni    -0.02482893    0.01924381   -3.54524676       3
Cr     3.44752918   -0.03224876   -0.02033897       4
Ni    -3.61606897    0.01342158    0.01846518       5
Cr    -0.03708562    3.62345840    0.04419771       6
Ni    -0.04855658    1.77016363    1.80103358       7
Ni    -1.82822167    0.00771020    1.79099067       8
Cr     1.69840643   -0.03151400    1.69097968       9
Cr     0.00577083   -1.77890362   -1.68701072      10
Co     1.73952999    0.01072176   -1.73941798      11
Ni    -1.84751504   -1.76657810    0.04444446      12
Co     0.04773618   -1.77802964    1.72753462      13
Cr     1.72673828    1.81992399    0.00930624      14
Co    -1.80749760    1.79893008   -0.01353865      15
Co    -0.02261467    1.82146616   -1.75599521      16
Cr    -1.76341545    0.01926717   -1.71270559      17
Co     0.00000000    0.00000000    0.00000000      18
          18
Lattice="  24.8920   0.0000   0.0000   0.0000  24.8920   0.0000   0.0000   0.0000  24.8920 " ConfE="      -5942.4054" DelE="          0.4649"
Ni    -0.04968927   -0.00317606    3.61120593       1
Co     0.00072084   -3.46794263    0.03866289       2
Ni    -0.03398365    0.03145675   -3.60986356       3
Cr     3.38026834   -0.03496337   -0.00923795       4
Ni    -3.60802168    0.00671244    0.01601060       5
Cr    -0.01414821    3.62514199    0.05221655       6
Ni    -0.04190148    1.73439153    1.79308923       7
Ni    -1.80564106   -0.00335130    1.79784629       8
Cr     1.74348033    0.02398152    1.87200135       9
Cr     0.00101547   -1.80666257   -1.83892601      10
Co     1.80805810    0.09917931   -1.97425513      11
Ni    -1.77400336   -1.74286404    0.04700481      12
Co    -0.00477229   -1.80130951    1.86797611      13
Cr     1.70039956    1.76220064    0.01010990      14
Co    -1.76884392    1.75965930   -0.00754608      15
Co     0.00297458    1.75313977   -1.71309108      16
Cr    -1.60088166    0.00964150   -1.61453833      17
Co     0.73130906   -0.64776448   -0.05466601      18
          18
Lattice="  24.8920   0.0000   0.0000   0.0000  24.8920   0.0000   0.0000   0.0000  24.8920 " ConfE="      -5943.1498" DelE="         -0.2795"
Ni    -0.04881629    0.00170845    3.57577822       1
Co    -0.05144345   -3.54339125    0.02697082       2
Ni    -0.03390856    0.03001028   -3.56502192       3
Cr     3.51363416    0.00644367   -0.00155517       4
Ni    -3.63075855    0.01232177    0.01712245       5
Cr    -0.03257315    3.65478806    0.04882410       6
Ni    -0.05765218    1.75024997    1.76230165       7
Ni    -1.82148223    0.01552779    1.77248411       8
Cr     1.65209045    0.00634217    1.67722107       9
Cr    -0.03493765   -1.72635983   -1.68268086      10
Co     1.68698458    0.05035441   -1.71688274      11
Ni    -1.80580635   -1.73598689    0.03784831      12
Co    -0.00460550   -1.74424132    1.74500819      13
Cr     1.68817971    1.75383034   -0.00413088      14
Co    -1.80066951    1.78886169   -0.02092026      15
Co    -0.03811624    1.79717282   -1.71974940      16
Cr    -1.72104839    0.05038182   -1.66576760      17
Co     1.72087520   -1.72371617    0.01496921      18
