          18
Lattice="  24.8920   0.0000   0.0000   0.0000  24.8920   0.0000   0.0000   0.0000  24.8920 " ConfE="      -5949.7995" DelE="          0.0000"
Ni    -0.03117527   -3.46370089   -0.01138605       1
Ni     3.45799092   -0.00116627    0.04355699       2
Ni    -3.60953807    0.03521731    0.01476614       3
Ni    -0.04101080    3.61933867    0.01671045       4
Ni    -0.05100856    0.06010243   -3.54137606       5
Cr    -0.09022326    0.02753561    3.57924768       6
Ni    -0.07521329   -1.74439383    1.78199588       7
Ni     1.70042322   -0.01654025    1.78276388       8
Cr     0.03677254   -1.69535357   -1.70901036       9
Cr     1.66663349    0.11622061   -1.71917148      10
Ni    -1.86160559   -1.74348948    0.01280010      11
Ni    -1.80511874    0.03314192   -1.75986464      12
Cr    -1.82507563    0.06670496    1.77568672      13
Cr    -0.05123073    1.78649070    1.76891496      14
Cr     1.71747457    1.83980447    0.04965738      15
Co    -1.80976943    1.81464237    0.03449727      16
Co    -0.03108970    1.82282328   -1.73757340      17
Co     0.00000000    0.00000000    0.00000000      18
          18
Lattice="  24.8920   0.0000   0.0000   0.0000  24.8920   0.0000   0.0000   0.0000  24.8920 " ConfE="      -5945.7739" DelE="          4.0256"
Ni    -0.05104423   -3.52233075   -0.01116351       1
Ni     3.09114189   -0.14662232    0.95763929       2
Ni    -3.58214926    0.03513101    0.02857736       3
Ni    -0.02516907    3.69302951    0.03670335       4
Ni    -0.08863715    0.03957401   -3.60203671       5
Cr    -0.05102837   -0.00174740    3.49999719       6
Ni    -0.17861562   -1.96057232    1.86206027       7
Ni     0.73280851   -0.08450134    0.95334962       8
Cr    -0.14577405   -1.96756294   -1.85538809       9
Cr     3.01154966    0.31896160   -1.26227750      10
Ni    -1.82229702   -1.74718596    0.00915252      11
Ni    -1.71321874    0.05060131   -1.70209063      12
Cr    -1.76572933    0.06821164    1.75312508      13
Cr     0.03593989    1.93240734    1.82065676      14
Cr     1.78553174    1.90774952   -0.00766482      15
Co    -1.72991277    1.79694674    0.07197896      16
Co    -0.07659593    2.01932981   -1.76389240      17
Co     0.88549628   -0.08233103   -1.41814049      18
          18
Lattice="  24.8920   0.0000   0.0000   0.0000  24.8920   0.0000   0.0000   0.0000  24.8920 " ConfE="      -5949.3484" DelE="          0.4511"
Ni    -0.03738619   -3.45432444   -0.01686289       1
Ni     1.68832279   -0.02447501    1.77780054       2
Ni    -3.61130337    0.03686932    0.01344107       3
Ni    -0.04338972    3.61910570    0.01404049       4
Ni    -0.04071698    0.05792139   -3.53040068       5
Cr    -0.09665523    0.03147125    3.58355944       6
Ni    -0.10074753   -1.74957472    1.79419094       7
Ni    -0.05764061   -0.00382123    0.02764780       8
Cr    -0.00712749   -1.72864482   -1.76519287       9
Cr     3.41340814   -0.00934774    0.00910886      10
Ni    -1.87154266   -1.74598216    0.01480788      11
Ni    -1.81011676    0.03443410   -1.76541136      12
Cr    -1.87201901    0.07183223    1.81033144      13
Cr    -0.05499277    1.79761086    1.77484043      14
Cr     1.71298053    1.81152163    0.02543704      15
Co    -1.82472352    1.82790239    0.03168650      16
Co    -0.02493666    1.82376475   -1.73067989      17
Co     1.70532890   -0.02203201   -1.67935725      18
