          18
Lattice="  24.8920   0.0000   0.0000   0.0000  24.8920   0.0000   0.0000   0.0000  24.8920 " ConfE="      -5924.2739" DelE="          0.0000"
Ni     3.48285439   -0.01015867   -0.02433616       1
Ni    -0.03599462   -3.53504040   -0.05244418       2
Ni    -0.05179067   -0.05167207   -3.59187836       3
Cr     0.05340898   -0.03610418    3.48019653       4
Cr    -0.00061989    3.53369612   -0.09501603       5
Co    -3.63516321   -0.00464630   -0.07000660       6
Co     1.73937474    1.73927291   -0.02054672       7
Ni    -1.81292378    1.74643846   -0.06515551       8
Cr     0.11648316    1.60584508    1.66369440       9
Co     1.73737518   -1.76543561    0.02750476      10
Cr     0.09657014   -1.62195087    1.65175494      11
Cr    -1.86648790   -0.05607777    1.66646526      12
Co     1.72564354   -0.02321127   -1.85505050      13
Cr     0.07429355    1.66787392   -1.75105274      14
Co    -1.83256583   -0.03968184   -1.78125202      15
Co    -1.81263559   -1.77745713    0.00371846      16
Co    -0.01609709   -1.75285628   -1.79006830      17
Co     0.00000000    0.00000000    0.00000000      18
          18
Lattice="  24.8920   0.0000   0.0000   0.0000  24.8920   0.0000   0.0000   0.0000  24.8920 " ConfE="      -5923.2836" DelE="          0.9903"
Ni     3.44112933   -0.01966853   -0.01388459       1
Ni    -0.03706543   -3.65101898   -0.08042081       2
Ni    -0.06120783   -0.06062311   -3.52502000       3
Cr     0.02363330   -0.04826127    3.37805384       4
Cr    -0.00225556    3.72170744   -0.10510404       5
Co    -3.54631407    0.01867159   -0.11232749       6
Co     1.76333862    1.88068332   -0.06658356       7
Ni    -1.84400588    1.93523900   -0.02979062       8
Cr    -0.02719732    1.93499383    1.60215621       9
Co     1.76233741   -1.93495497   -0.00885025      10
Cr    -0.05524101   -1.91234798    1.65304954      11
Cr    -1.74783974   -0.01672509    1.53579324      12
Co     1.61286842   -0.04244460   -1.72644251      13
Cr     0.11090676    1.76485581   -1.65151607      14
Co    -1.16350768   -0.00589484   -1.15741506      15
Co    -1.81800356   -1.89970687    0.01838062      16
Co     0.02979681   -1.89267495   -1.79938088      17
Co     0.72747229   -0.00053045    0.82238429      18
          18
Lattice="  24.8920   0.0000   0.0000   0.0000  24.8920   0.0000   0.0000   0.0000  24.8920 " ConfE="      -5924.3487" DelE="         -0.0749"
Ni     3.53062081   -0.01312961   -0.05373720       1
Ni    -0.04089530   -3.55584974   -0.06221738       2
Ni    -0.05210187   -0.05469858   -3.59470219       3
Cr     0.02404128   -0.01873768    3.51872222       4
Cr    -0.01991373    3.55867108   -0.12514746       5
Co    -3.67114547   -0.01087609   -0.08701695       6
Co     1.71969332    1.72636381   -0.05895185       7
Ni    -1.84417989    1.72391291   -0.09442095       8
Cr    -0.00594189    1.55590573    1.49862742       9
Co     1.70508098   -1.75916621   -0.00410456      10
Cr     0.02733070   -1.62285541    1.60046824      11
Cr    -1.83111124   -0.06383481    1.62212692      12
Co     1.69510999   -0.02867156   -1.81429066      13
Cr     0.06662410    1.57881446   -1.65683124      14
Co    -1.82863844   -0.05007238   -1.77367590      15
Co    -1.79113734   -1.75132726    0.00419449      16
Co    -0.02645523   -1.72775069   -1.76624176      17
Co     1.72557833   -0.00374155    1.72380322      18
