          18
Lattice="  24.8920   0.0000   0.0000   0.0000  24.8920   0.0000   0.0000   0.0000  24.8920 " ConfE="      -5950.7777" DelE="          0.0000"
Ni    -0.02997692   -3.51089601    0.03450826       1
Ni     3.40732862   -0.00152088    0.04971314       2
Co    -0.06195777    3.59531589    0.04227821       3
Co    -3.67142413    0.01101930    0.03001150       4
Ni    -0.10115022   -0.00270405    3.60683563       5
Co    -0.08050231    0.04817922   -3.53000720       6
Ni    -0.06454542   -1.75432419    1.80633950       7
Co    -0.02674815   -1.71431985   -1.73015667       8
Ni     1.71158167   -0.02641126    1.79933313       9
Cr     1.60834711    0.00320924   -1.76219893      10
Ni    -1.84731783   -1.75197929    0.05765558      11
Co     1.72061100    1.83971955    0.03973923      12
Cr    -1.80980583    1.76310534    0.03705716      13
Co    -1.87605482    0.02933121    1.78288832      14
Cr    -1.74487037    0.02693175   -1.69553985      15
Ni    -0.04684722    1.78304721    1.81884893      16
Co    -0.06032382    1.83593904   -1.71965793      17
Co     0.00000000    0.00000000    0.00000000      18
          18
Lattice="  24.8920   0.0000   0.0000   0.0000  24.8920   0.0000   0.0000   0.0000  24.8920 " ConfE="      -5950.1031" DelE="          0.6747"
Ni    -0.02548809   -3.48784630    0.03629944       1
Ni     3.41352097    0.00095935    0.05768888       2
Co    -0.04787536    3.58109759    0.03949921       3
Co    -3.66458906    0.00099180    0.02773705       4
Ni    -0.10699406    0.00179248    3.65301927       5
Co    -0.09053297    0.04577118   -3.58509603       6
Ni    -0.09300767   -1.74989219    1.89209374       7
Co    -0.14018896   -1.77188648   -1.87995200       8
Ni     1.76189721    0.03514125    1.95447559       9
Cr     1.66626811    0.05171516   -1.91669789      10
Ni    -1.79027703   -1.72610978    0.05981269      11
Co     1.69259223    1.75341476    0.02663367      12
Cr    -1.74850042    1.69857721    0.03754854      13
Co    -1.86157562    0.02787820    1.77810351      14
Cr    -1.68185660    0.01389818   -1.66955788      15
Ni    -0.03583500    1.74167816    1.80307149      16
Co    -0.06000329    1.77579722   -1.69670781      17
Co     0.98151409   -0.88096795   -0.05800285      18
          18
Lattice="  24.8920   0.0000   0.0000   0.0000  24.8920   0.0000   0.0000   0.0000  24.8920 " ConfE="      -5950.6354" DelE="          0.1423"
Ni    -0.05156419   -3.53644971    0.03125911       1
Ni     3.46327236    0.04888129    0.05108654       2
Co    -0.06205542    3.60560837    0.03994899       3
Co    -3.68534464    0.00842207    0.03086665       4
Ni    -0.11105041    0.00645268    3.62538257       5
Co    -0.07658116    0.05243903   -3.55183633       6
Ni    -0.08395488   -1.72556957    1.80427315       7
Co    -0.05855112   -1.65470413   -1.71397011       8
Ni     1.67704535    0.02490243    1.79030890       9
Cr     1.60291538    0.00597076   -1.72861228      10
Ni    -1.81856607   -1.72674212    0.05679960      11
Co     1.70009957    1.80470960    0.03457965      12
Cr    -1.79744533    1.73993498    0.04514939      13
Co    -1.87565627    0.04200410    1.77075813      14
Cr    -1.71074599    0.04327201   -1.65293699      15
Ni    -0.06206829    1.77389440    1.79584462      16
Co    -0.06466546    1.77683982   -1.67198096      17
Co     1.69958717   -1.68924916    0.01720781      18
