          18
Lattice="  24.8920   0.0000   0.0000   0.0000  24.8920   0.0000   0.0000   0.0000  24.8920 " ConfE="      -5950.0572" DelE="          0.0000"
Ni     0.05272431    0.02816280    3.46782193       1
Ni     3.56248078    0.07981000   -0.05452427       2
Cr     0.08985664   -3.44448154   -0.10099713       3
Cr    -3.49781824    0.07831780   -0.08757675       4
Co     0.02345029    3.66179507   -0.03053402       5
Co     0.05710736    0.11814011   -3.58339440       6
Cr    -1.65841877   -0.00808163    1.68943902       7
Co    -1.72812339   -1.70586476   -0.08715467       8
Co     1.77487185    0.03825896    1.68086051       9
Co     1.79025583   -1.71844410   -0.05304313      10
Cr     0.03960182    1.84811064    1.72145705      11
Cr    -1.72147587    1.83295777   -0.01292322      12
Cr    -1.68699698    0.06996955   -1.84388642      13
Cr     0.02714529    1.86311006   -1.75914400      14
Co     0.04562891   -1.69346814   -1.85231845      15
Co     1.75200586    1.86063195   -0.03523314      16
Cr     1.72761450    0.11206229   -1.74833741      17
Co     0.00000000    0.00000000    0.00000000      18
          18
Lattice="  24.8920   0.0000   0.0000   0.0000  24.8920   0.0000   0.0000   0.0000  24.8920 " ConfE="      -5948.8614" DelE="          1.1959"
Ni     0.07039868    0.02356727    3.49528765       1
Ni     3.54276388    0.13357189   -0.07099208       2
Cr     0.09449578   -3.42692136   -0.08326830       3
Cr    -3.54525662    0.10496214   -0.10175994       4
Co     0.02073556    3.60726086   -0.04359609       5
Co     0.05213961    0.08502015   -3.62117700       6
Cr    -1.76308629    0.08522016    1.69244971       7
Co    -1.82980017   -1.69322151   -0.16306401       8
Co     1.94349425    0.07280419    1.78733206       9
Co     1.90909236   -1.70251322   -0.10571733      10
Cr    -0.02750571    1.85666841    1.91088963      11
Cr    -1.64739258    1.78309247   -0.01996132      12
Cr    -1.57109316    0.06342712   -1.75450318      13
Cr    -0.02129269    1.91057624   -1.96988325      14
Co     0.06838310   -1.64726379   -1.75999575      15
Co     0.99159248    1.26973397    0.00048255      16
Cr     1.70283788    0.07498694   -1.80163045      17
Co     0.02016532   -1.04695866    1.10073683      18
          18
Lattice="  24.8920   0.0000   0.0000   0.0000  24.8920   0.0000   0.0000   0.0000  24.8920 " ConfE="      -5950.0066" DelE="          0.0506"
Ni     0.06532776    0.07513621    3.49180667       1
Ni     3.54363232    0.10852798   -0.05653541       2
Cr     0.09318039   -3.45954582   -0.10049239       3
Cr    -3.50467646    0.08286544   -0.09578395       4
Co     0.05997743    3.60924884   -0.03769259       5
Co     0.06113285    0.12519218   -3.57271842       6
Cr    -1.68445717    0.04961969    1.69988448       7
Co    -1.73681284   -1.68877315   -0.10782938       8
Co     1.78406320    0.12602372    1.65066518       9
Co     1.82277554   -1.72301484   -0.07293947      10
Cr     0.09912754    1.81361906    1.63599885      11
Cr    -1.75934434    1.85037376   -0.01847420      12
Cr    -1.67784786    0.08903872   -1.86262042      13
Cr     0.06976961    1.86509999   -1.68978491      14
Co     0.05478569   -1.69775672   -1.83702679      15
Co     0.04726990    0.07682869   -0.07726931      16
Cr     1.73810351    0.14912353   -1.74746560      17
Co     0.04374869   -1.69397270    1.69420515      18
