          18
Lattice="  24.8920   0.0000   0.0000   0.0000  24.8920   0.0000   0.0000   0.0000  24.8920 " ConfE="      -5947.9108" DelE="          0.0000"
Ni     0.02506088    0.02870306    3.45938499       1
Ni     3.47480907    0.00570816   -0.06274480       2
Co    -0.01773508    0.03876116   -3.65897792       3
Cr    -3.59705130    0.01652590   -0.08504135       4
Cr    -0.04720678   -3.57625953   -0.07917935       5
Ni    -0.01069851    3.53596077   -0.06179115       6
Cr     0.00868745   -1.69707436    1.70310865       7
Ni     0.01711596    1.76713934    1.72634977       8
Ni     1.71570655   -1.76097588   -0.06868762       9
Cr     1.71587692    1.68922164   -0.00767697      10
Cr    -1.81764221    0.08696220    1.67913118      11
Cr     1.70917687    0.01590084   -1.90978762      12
Co    -1.81870047    0.04636484   -1.80506593      13
Ni    -1.78408572   -1.75023208   -0.06736525      14
Co    -1.80539254    1.77726134   -0.05379971      15
Ni    -0.05124996   -1.74988917   -1.85435317      16
Ni    -0.03469476    1.76367257   -1.83393278      17
Co     0.00000000    0.00000000    0.00000000      18
          18
Lattice="  24.8920   0.0000   0.0000   0.0000  24.8920   0.0000   0.0000   0.0000  24.8920 " ConfE="      -5947.3219" DelE="          0.5889"
Ni     0.01802362    0.05118544    3.43390557       1
Ni     3.44338226   -0.00840310   -0.05461280       2
Co    -0.00521546    0.04157013   -3.64705312       3
Cr    -3.60760163    0.01562726   -0.07870912       4
Cr    -0.05170095   -3.65823228   -0.09554998       5
Ni    -0.03677295    3.58416753   -0.06972582       6
Cr    -0.02397008   -1.83441100    1.71542112       7
Ni    -0.07497323    1.93520080    1.77333242       8
Ni     1.74028648   -1.91529262   -0.11631368       9
Cr     1.73941913    1.84485898   -0.06373297      10
Cr    -1.73901738    0.10294691    1.62485327      11
Cr     1.67106602   -0.00956161   -1.80291026      12
Co    -1.80334151    0.04281069   -1.77440291      13
Ni    -1.73424986   -1.72837660   -0.05021287      14
Co    -1.79318886    1.76151829   -0.04360241      15
Ni    -0.03978890   -1.74810889   -1.82164509      16
Ni    -0.02956554    1.74513134   -1.79092165      17
Co     0.89230267    0.02458677    0.87891322      18
          18
Lattice="  24.8920   0.0000   0.0000   0.0000  24.8920   0.0000   0.0000   0.0000  24.8920 " ConfE="      -5948.0118" DelE="         -0.1010"
Ni    -0.01879288    0.04985478    3.51659029       1
Ni     3.52700681   -0.00011487   -0.09679655       2
Co    -0.01059569    0.04313846   -3.66597811       3
Cr    -3.62777662    0.01697471   -0.08380303       4
Cr    -0.04884153   -3.60657012   -0.08883985       5
Ni    -0.01682472    3.54575302   -0.06504321       6
Cr    -0.02144308   -1.68421058    1.70097959       7
Ni    -0.00836839    1.76445323    1.70456923       8
Ni     1.68594099   -1.74351803   -0.08729387       9
Cr     1.70961373    1.69459262   -0.04586978      10
Cr    -1.76835950    0.09098736    1.65294896      11
Cr     1.70574807    0.02365045   -1.86691407      12
Co    -1.81988992    0.04567159   -1.78533223      13
Ni    -1.74652761   -1.71331312   -0.05349957      14
Co    -1.79241901    1.74136204   -0.04414376      15
Ni    -0.05038840   -1.72001480   -1.83794474      16
Ni    -0.03473391    1.73207876   -1.80596904      17
Co     1.72310210    0.01167154    1.67241440      18
