          18
Lattice="  24.8920   0.0000   0.0000   0.0000  24.8920   0.0000   0.0000   0.0000  24.8920 " ConfE="      -5950.3452" DelE="          0.0000"
Ni    -3.49426578    0.00671858    0.00554049       1
Ni    -0.00619217   -0.04063308   -3.47609847       2
Cr     3.55764255    0.01894365    0.02318778       3
Ni     0.00255033    0.00828462    3.61076134       4
Cr     0.03852245   -3.54392308    0.03774604       5
Cr     0.02920044    3.55244425    0.03881283       6
Ni    -1.73022344   -1.75852634    0.02556215       7
Ni    -1.75646729    1.73696689   -0.00198157       8
Co     0.07942601   -1.80422444   -1.71581000       9
Ni    -0.00387566    1.72313137   -1.74702520      10
Cr    -1.80997118    0.02899340    1.83721209      11
Cr     1.86600939    0.03161442   -1.73758623      12
Ni     1.76970575    0.00513857    1.82258679      13
Ni     0.01360373   -1.77225419    1.82097110      14
Ni     0.00180107    1.78491083    1.80345551      15
Ni     1.79724692   -1.75671732    0.04620585      16
Co     1.78480209    1.78761167    0.02631672      17
Ni     0.00000000    0.00000000    0.00000000      18
          18
Lattice="  24.8920   0.0000   0.0000   0.0000  24.8920   0.0000   0.0000   0.0000  24.8920 " ConfE="      -5949.5950" DelE="          0.7501"
Ni    -3.45432121   -0.00152237   -0.01416866       1
Ni    -0.01109737   -0.02498197   -3.42854942       2
Cr     3.55652785    0.00742723    0.00713672       3
Ni    -0.01904955    0.00976516    3.59050120       4
Cr     0.07379123   -3.66313991    0.05803653       5
Cr     0.04258904    3.65970355    0.05404997       6
Ni    -1.74847999   -1.96772748    0.09284836       7
Ni    -1.76919967    1.90172357    0.04085717       8
Co     0.13044030   -1.95708332   -1.72326153       9
Ni     0.02832043    1.88037363   -1.74970514      10
Cr    -1.74108489    0.01903037    1.69425111      11
Cr     1.73055594    0.04356336   -1.64243126      12
Ni     1.72822098    0.00611153    1.78670235      13
Ni     0.00208114   -1.77555647    1.78795621      14
Ni    -0.01437137    1.78107372    1.75710882      15
Ni     1.75647334   -1.75117142    0.04978718      16
Co     1.74374054    1.75298877    0.00257779      17
Ni    -1.08881629   -0.04689404   -1.06197444      18
          18
Lattice="  24.8920   0.0000   0.0000   0.0000  24.8920   0.0000   0.0000   0.0000  24.8920 " ConfE="      -5950.1252" DelE="          0.2200"
Ni    -3.53155193    0.00291342    0.04325712       1
Ni     0.01935388   -0.04217700   -3.52022797       2
Cr     3.57444404    0.01609910    0.02237779       3
Ni     0.00760968    0.00935334    3.63028796       4
Cr     0.04778408   -3.58475353    0.05094731       5
Cr     0.03777889    3.58718707    0.05036815       6
Ni    -1.70039896   -1.75658221    0.06292005       7
Ni    -1.71835828    1.72448760    0.04077580       8
Co     0.09308112   -1.78138780   -1.68941574       9
Ni     0.02637901    1.71286227   -1.71523532      10
Cr    -1.79204357    0.02330544    1.82556368      11
Cr     1.82492855    0.02853210   -1.69638460      12
Ni     1.75330531    0.00809460    1.80587103      13
Ni     0.01540644   -1.74882447    1.81103843      14
Ni     0.00620153    1.76530000    1.78996479      15
Ni     1.77345578   -1.72922356    0.05153690      16
Co     1.76715473    1.75161175    0.02169735      17
Ni    -1.71275752   -0.02395831   -1.69817737      18
