          18
Lattice="  24.8920   0.0000   0.0000   0.0000  24.8920   0.0000   0.0000   0.0000  24.8920 " ConfE="      -5938.6815" DelE="          0.0000"
Ni    -0.00486565    0.00651324   -3.47424307       1
Ni    -0.01552355    3.45586356   -0.01716500       2
Ni     0.02080626   -0.03057468    3.56978278       3
Ni     0.01956031   -3.58343501   -0.00627810       4
Co     3.51833279   -0.01044206    0.01851438       5
Cr    -3.44971801   -0.12129220   -0.00948009       6
Ni     1.74122431    0.03003836   -1.73056432       7
Cr     1.78766483    1.71077812    0.09534363       8
Co    -1.76478540    1.68428459   -0.02333648       9
Co    -1.79140249   -0.02285975   -1.74613440      10
Ni    -0.00415120    1.74707923    1.79618255      11
Ni     1.75585739   -1.78848511    0.02055551      12
Ni     0.01394931   -1.79411676    1.79506210      13
Co     0.04136730   -1.82205604   -1.78758008      14
Cr     1.79999809    0.02246823    1.79413446      15
Co    -1.76854276   -0.06137948    1.81505890      16
Co    -1.79699563   -1.78683572    0.01484174      17
Ni     0.00000000    0.00000000    0.00000000      18
          18
Lattice="  24.8920   0.0000   0.0000   0.0000  24.8920   0.0000   0.0000   0.0000  24.8920 " ConfE="      -5937.9982" DelE="          0.6833"
Ni     0.01118615    0.02732082   -3.43045590       1
Ni    -0.02385586    3.45198076   -0.01233126       2
Ni     0.02436096   -0.02485663    3.56303205       3
Ni     0.01874908   -3.57866064   -0.01216106       4
Co     3.57859927   -0.02465120    0.02653838       5
Cr    -3.51723889   -0.13167585    0.02986709       6
Ni     1.90398379   -0.04666285   -1.77457491       7
Cr     1.96140333    1.71388938    0.15895351       8
Co    -1.97861717    1.63777610    0.08371072       9
Co    -1.88814481   -0.06384181   -1.76497593      10
Ni    -0.00651726    1.69045558    1.70583972      11
Ni     1.74592632   -1.74916571    0.01837784      12
Ni     0.01431325   -1.76247829    1.75598024      13
Co     0.03632661   -1.76477661   -1.75537398      14
Cr     1.77841241    0.01546164    1.75128464      15
Co    -1.76591479   -0.07041248    1.81330580      16
Co    -1.79100500   -1.73328351    0.01656053      17
Ni     0.04311560    1.08235035   -0.92672712      18
          18
Lattice="  24.8920   0.0000   0.0000   0.0000  24.8920   0.0000   0.0000   0.0000  24.8920 " ConfE="      -5938.4777" DelE="          0.2038"
Ni     0.00415778   -0.01886820   -3.50986483       1
Ni    -0.01834138    3.51217356    0.02364139       2
Ni     0.02593197   -0.02635687    3.58130818       3
Ni     0.01795606   -3.59020171   -0.00768719       4
Co     3.55185193   -0.02118135    0.01873836       5
Cr    -3.47786729   -0.14808827    0.01108385       6
Ni     1.74274359   -0.00182247   -1.69873123       7
Cr     1.76569591    1.67801473    0.10355715       8
Co    -1.75555937    1.61052993    0.02764531       9
Co    -1.77571603   -0.05437317   -1.71437988      10
Ni     0.00759706    1.70912955    1.75002127      11
Ni     1.72675874   -1.75253677    0.03254321      12
Ni     0.01406118   -1.76516425    1.77051708      13
Co     0.03856525   -1.79236652   -1.77500582      14
Cr     1.79092402    0.02124989    1.78264080      15
Co    -1.75339667   -0.07358341    1.81358516      16
Co    -1.77577526   -1.75079910    0.02077652      17
Ni    -0.00338373    1.72305729   -1.70449282      18
