          18
Lattice="  24.8920   0.0000   0.0000   0.0000  24.8920   0.0000   0.0000   0.0000  24.8920 " ConfE="      -5934.6642" DelE="          0.0000"
Ni    -0.00350142   -3.50501482   -0.03161363       1
Cr     3.44603750   -0.06264695   -0.01057096       2
Cr    -0.06306194    0.05665406    3.52735204       3
Co     0.00300276    0.00778015   -3.53980438       4
Cr    -3.62736056    0.05157380   -0.01470119       5
Co    -0.00512457    3.58600694   -0.00958745       6
Ni     1.72359716    0.00761444    1.76231349       7
Ni    -0.02367606   -1.73955783   -1.76361176       8
Co     1.75760951   -0.01637713   -1.68059194       9
Cr     0.00664608   -1.75323487    1.71503328      10
Ni    -1.86070906   -1.76453676   -0.02288322      11
Ni    -0.04799729    1.78640817   -1.77348951      12
Cr     1.73947909    1.85439034    0.02614177      13
Co    -0.06098631    1.79816078    1.72423223      14
Co    -1.84549145    0.01599055   -1.75794003      15
Co    -1.85140286    0.00132789    1.75152932      16
Cr    -1.84717522    1.82628549    0.01192918      17
Cr     0.00000000    0.00000000    0.00000000      18
          18
Lattice="  24.8920   0.0000   0.0000   0.0000  24.8920   0.0000   0.0000   0.0000  24.8920 " ConfE="      -5933.7119" DelE="          0.9523"
Ni    -0.01214232   -3.46421651   -0.03247912       1
Cr     3.44103431   -0.00243259    0.00767770       2
Cr    -0.08952307    0.09652669    3.61682228       3
Co    -0.01486428    0.02556446   -3.61878471       4
Cr    -3.59135160    0.03495365   -0.01412173       5
Co     0.00860523    3.59874657   -0.00786754       6
Ni     1.71389720    0.06217130    1.89808502       7
Ni    -0.09501933   -1.77173394   -1.95886220       8
Co     1.74999344    0.01318528   -1.84450781       9
Cr    -0.02193434   -1.77474688    1.90177957      10
Ni    -1.77544188   -1.73229765   -0.01737830      11
Ni    -0.03791483    1.73127313   -1.75656937      12
Cr     1.66564888    1.77668136    0.02801650      13
Co    -0.04987132    1.75522028    1.69119295      14
Co    -1.81996711    0.00111181   -1.75720415      15
Co    -1.79435778   -0.01032500    1.73983039      16
Cr    -1.73308198    1.73856465    0.02546008      17
Cr     0.75467795   -0.87750694   -0.02600943      18
          18
Lattice="  24.8920   0.0000   0.0000   0.0000  24.8920   0.0000   0.0000   0.0000  24.8920 " ConfE="      -5934.2944" DelE="          0.3698"
Ni    -0.04674403   -3.56062726   -0.02937877       1
Cr     3.53974591    0.02868399    0.00922487       2
Cr    -0.06462397    0.05571922    3.53823960       3
Co    -0.00998160    0.01146778   -3.56007658       4
Cr    -3.62491899    0.05480616   -0.01588727       5
Co     0.00171046    3.62649576   -0.00614498       6
Ni     1.68002043    0.02714108    1.74008743       7
Ni    -0.05474266   -1.71382980   -1.74637530       8
Co     1.73887778    0.01029566   -1.68370669       9
Cr    -0.06778000   -1.71757678    1.71116598      10
Ni    -1.84096258   -1.75201963   -0.02145516      11
Ni    -0.05771579    1.75988523   -1.73079566      12
Cr     1.68754429    1.79957988    0.01539915      13
Co    -0.06633765    1.77750656    1.68217818      14
Co    -1.85419895    0.01980015   -1.73770401      15
Co    -1.82869690    0.00701325    1.72309427      16
Cr    -1.78013186    1.78159053    0.02979257      17
Cr     1.70857613   -1.71132088   -0.01592852      18
