          18
Lattice="  24.8920   0.0000   0.0000   0.0000  24.8920   0.0000   0.0000   0.0000  24.8920 " ConfE="      -5944.6854" DelE="          0.0000"
Co     0.01319904    0.03780587    3.52106708       1
Co    -0.01426714    3.52632981    0.03876791       2
Ni     0.03507195    0.00513996   -3.55239644       3
Ni     0.00853901   -3.56021415   -0.00368735       4
Ni    -3.51125381    0.01011909    0.00194002       5
Ni     3.54426440    0.01646044    0.03420287       6
Co    -1.72449160    0.10377233    1.82219552       7
Cr     1.66701908    0.08908359    1.78214119       8
Ni    -1.74176780    1.76776190   -0.00433657       9
Ni     1.75030873    1.76382148   -0.00640824      10
Co     0.00360899   -1.79859445    1.80714062      11
Co    -0.01387532    1.80216730   -1.83577776      12
Ni     0.03158695   -1.80004548   -1.78981958      13
Ni    -1.76084685   -1.76867139    0.00259697      14
Co     1.76812845   -1.79256088    0.06389099      15
Cr    -1.73304919    0.03920440   -1.81617866      16
Ni     1.77366180   -0.00904531   -1.78086555      17
Ni     0.00000000    0.00000000    0.00000000      18
          18
Lattice="  24.8920   0.0000   0.0000   0.0000  24.8920   0.0000   0.0000   0.0000  24.8920 " ConfE="      -5943.9986" DelE="          0.6868"
Co    -0.00718947    0.05329155    3.50822236       1
Co    -0.01254547    3.48407416    0.05058790       2
Ni     0.03719890    0.00869538   -3.54938768       3
Ni     0.00533410   -3.54024155    0.00912063       4
Ni    -3.57271502    0.00138037   -0.01014915       5
Ni     3.60365944    0.00758348    0.00602899       6
Co    -1.93336095    0.02540818    1.87496285       7
Cr     1.91944238    0.00809658    1.81243144       8
Ni    -1.86961235    1.78728986   -0.04070966       9
Ni     1.89014776    1.80569648   -0.07760303      10
Co     0.00393246   -1.72680615    1.79511475      11
Co    -0.02507379    1.75292263   -1.77064572      12
Ni     0.01991044   -1.73360949   -1.72894549      13
Ni    -1.75237690   -1.71033657    0.02221791      14
Co     1.74848094   -1.73533410    0.08330925      15
Cr    -1.69765504    0.06816614   -1.76250051      16
Ni     1.77798323   -0.00381176   -1.76031599      17
Ni     0.02268019    0.76528522    0.87292644      18
          18
Lattice="  24.8920   0.0000   0.0000   0.0000  24.8920   0.0000   0.0000   0.0000  24.8920 " ConfE="      -5944.6766" DelE="          0.0089"
Co    -0.00884361    0.00277637    3.58260977       1
Co    -0.00304504    3.56105823   -0.01102609       2
Ni     0.03894792    0.00192808   -3.56442979       3
Ni     0.00745447   -3.56390739   -0.00247963       4
Ni    -3.52715530    0.00805800   -0.00045569       5
Ni     3.56910973    0.00822670    0.02951314       6
Co    -1.75529283    0.03899607    1.80611766       7
Cr     1.61083825   -0.09321785    1.67361680       8
Ni    -1.73254736    1.74009292   -0.01354078       9
Ni     1.75030174    1.72513475   -0.02144969      10
Co    -0.00075299   -1.74593272    1.78788976      11
Co    -0.02472196    1.76572244   -1.80167457      12
Ni     0.02269396   -1.77018164   -1.76589010      13
Ni    -1.72381544   -1.71785288    0.00074601      14
Co     1.74899414   -1.76198446    0.05596206      15
Cr    -1.68532493    0.05268888   -1.77735827      16
Ni     1.75029774   -0.01553180   -1.75555645      17
Ni     0.02548719    1.74376438    1.74672659      18
