          18
Lattice="  24.8920   0.0000   0.0000   0.0000  24.8920   0.0000   0.0000   0.0000  24.8920 " ConfE="      -5947.4782" DelE="          0.0000"
Cr    -0.05572726    3.59060258    0.00730423       1
Ni    -3.54693629   -0.02956753    0.02290385       2
Ni    -0.02427644    0.00895950    3.57733246       3
Co    -0.01216130   -0.02582570   -3.51411712       4
Co     3.55174645    0.05921922    0.01651848       5
Cr     0.00566457   -3.54029729    0.05815261       6
Ni    -1.73472629    1.77588458   -0.01296029       7
Ni     1.73104171    1.79467092    0.01634127       8
Ni    -0.01855262    1.80302494    1.80516595       9
Ni    -1.78020686    0.01337493    1.79590916      10
Co    -1.77811133   -0.02131518   -1.77691118      11
Co     1.74040179    0.04227072   -1.78195156      12
Ni     1.77744152   -1.73933293    0.03778783      13
Co     1.77481723    0.00379302    1.83562614      14
Co    -1.75334673   -1.81767937    0.02134803      15
Cr    -0.01166736   -1.79567462    1.76846339      16
Co    -0.03137400   -1.82773754   -1.77003924      17
Ni     0.00000000    0.00000000    0.00000000      18
          18
Lattice="  24.8920   0.0000   0.0000   0.0000  24.8920   0.0000   0.0000   0.0000  24.8920 " ConfE="      -5946.8777" DelE="          0.6005"
Cr    -0.04767966    3.52443845    0.00640632       1
Ni    -3.59436751   -0.03642289    0.04310762       2
Ni    -0.02586214    0.01147764    3.57869109       3
Co    -0.01165299   -0.01629705   -3.49589576       4
Co     3.59871846    0.04504483    0.01820958       5
Cr     0.01407787   -3.56169907    0.04446910       6
Ni    -1.89959094    1.81107488    0.06975194       7
Ni     1.90086660    1.84495378    0.07427683       8
Ni    -0.00961278    1.76891154    1.75722104       9
Ni    -1.78632431    0.01598552    1.79252365      10
Co    -1.91308226   -0.06020271   -1.80343647      11
Co     1.91542849   -0.00424835   -1.85202934      12
Ni     1.75325420   -1.68271998    0.00799150      13
Co     1.76019034    0.00277941    1.80728705      14
Co    -1.71083287   -1.76615939    0.02556287      15
Cr    -0.02486643   -1.74108348    1.69026915      16
Co    -0.02834483   -1.77354369   -1.75567786      17
Ni     0.02719248    0.65316122   -0.61685975      18
          18
Lattice="  24.8920   0.0000   0.0000   0.0000  24.8920   0.0000   0.0000   0.0000  24.8920 " ConfE="      -5947.5024" DelE="         -0.0242"
Cr    -0.05943674    3.62143356    0.03719651       1
Ni    -3.56356370   -0.03874436    0.03173532       2
Ni    -0.02565704    0.00751378    3.59334965       3
Co    -0.02249374   -0.03032966   -3.55163982       4
Co     3.57847848    0.04928640    0.01678099       5
Cr     0.00796547   -3.56629265    0.05359413       6
Ni    -1.76823170    1.74998847    0.03909798       7
Ni     1.75616322    1.77113358    0.05006209       8
Ni    -0.01727681    1.77913415    1.77977629       9
Ni    -1.75958508    0.00186144    1.78738170      10
Co    -1.79790194   -0.05566309   -1.76014415      11
Co     1.76257388    0.00428972   -1.76305612      12
Ni     1.73738463   -1.70537732    0.03294171      13
Co     1.74771487   -0.01042104    1.82323554      14
Co    -1.69987580   -1.79074859    0.03812900      15
Cr    -0.02458677   -1.76912463    1.72087690      16
Co    -0.03581131   -1.78226101   -1.75182068      17
Ni    -0.02152144    1.72472011   -1.66755545      18
