          18
Lattice="  24.8920   0.0000   0.0000   0.0000  24.8920   0.0000   0.0000   0.0000  24.8920 " ConfE="      -5942.7361" DelE="          0.0000"
Co    -3.47304368    0.03751701   -0.08148433       1
Ni     0.05329530    0.06718712   -3.53322319       2
Ni     3.65691080    0.06004495   -0.01932515       3
Cr     0.07545701    0.02037973    3.53536413       4
Co     0.03037650   -3.46514813   -0.03779872       5
Co     0.07833832    3.67085057   -0.05148179       6
Cr    -1.69824211   -1.61283094   -0.09909891       7
Ni    -1.71174310    1.80184810   -0.06107894       8
Co    -0.00234281   -1.70294828   -1.78023732       9
Ni     0.06619538    1.82991396   -1.76960990      10
Co    -1.72684863    0.07322303    1.78070948      11
Ni     1.86373496    0.08104531   -1.78305763      12
Ni     1.84127358    0.05570761    1.74411028      13
Cr     0.02494733   -1.69159695    1.71696578      14
Ni     0.08576038    1.82832563    1.73638658      15
Ni     1.83469839   -1.70661086   -0.05792948      16
Co     1.87579315    1.85342619   -0.01078387      17
Co     0.00000000    0.00000000    0.00000000      18
          18
Lattice="  24.8920   0.0000   0.0000   0.0000  24.8920   0.0000   0.0000   0.0000  24.8920 " ConfE="      -5942.2254" DelE="          0.5107"
Co    -3.42623864    0.04557509   -0.09842318       1
Ni     0.06636057    0.05638825   -3.50995211       2
Ni     3.65951436    0.06546100   -0.02476197       3
Cr     0.07065613    0.01711610    3.54596870       4
Co     0.03406958   -3.50106343   -0.02996975       5
Co     0.08469064    3.72812766   -0.04358063       6
Cr    -1.77010474   -1.85504190   -0.05069899       7
Ni    -1.71651719    1.94709424    0.00188416       8
Co     0.10570795   -1.88982399   -1.85391328       9
Ni     0.11028338    1.92349595   -1.77293181      10
Co    -1.66098413    0.03874269    1.69658184      11
Ni     1.82663858    0.08608569   -1.76653330      12
Ni     1.79113833    0.06017779    1.70067059      13
Cr     0.00178667   -1.65648618    1.65454637      14
Ni     0.08034285    1.81868148    1.69566808      15
Ni     1.79180569   -1.68110703   -0.06046577      16
Co     1.88558766    1.87776623   -0.01425731      17
Co    -0.79739198   -0.06372024   -0.78440734      18
          18
Lattice="  24.8920   0.0000   0.0000   0.0000  24.8920   0.0000   0.0000   0.0000  24.8920 " ConfE="      -5943.2332" DelE="         -0.4971"
Co    -3.51597850    0.03690192   -0.04116203       1
Ni     0.08687360    0.07185505   -3.57991838       2
Ni     3.65957426    0.06130960   -0.01954071       3
Cr     0.08631209    0.01746985    3.57533940       4
Co     0.03179230   -3.49165426   -0.03419423       5
Co     0.08684986    3.68782458   -0.05292197       6
Cr    -1.66884128   -1.65166052   -0.05086965       7
Ni    -1.68072579    1.80355018   -0.03404651       8
Co     0.03278335   -1.70567611   -1.74930619       9
Ni     0.09464693    1.83986898   -1.76199487      10
Co    -1.65252949    0.03336166    1.71477989      11
Ni     1.83233091    0.08459271   -1.76943216      12
Ni     1.80781910    0.05660376    1.72452421      13
Cr     0.01957309   -1.67287975    1.71341726      14
Ni     0.09612591    1.80624646    1.71627926      15
Ni     1.79218278   -1.68070187   -0.04017226      16
Co     1.89062854    1.86716534   -0.00845353      17
Co    -1.69153303    0.04511099   -1.79179978      18
