          18
Lattice="  24.8920   0.0000   0.0000   0.0000  24.8920   0.0000   0.0000   0.0000  24.8920 " ConfE="      -5949.7041" DelE="          0.0000"
Ni     0.04661373    3.37479005   -0.09132253       1
Ni     0.07067163   -0.11414880   -3.63468724       2
Ni     0.06081505   -0.09000055    3.48216431       3
Co    -3.43122977   -0.08383942   -0.10412968       4
Cr     3.66994319   -0.05825709   -0.06396921       5
Cr     0.10447687   -3.67839781   -0.05291273       6
Ni     0.03915105    1.66862467   -1.85376069       7
Ni    -1.69999279   -0.08711663   -1.82402939       8
Ni     1.85449818   -1.82141627   -0.07315134       9
Co     0.03338557    1.56990204    1.62319983      10
Co    -1.68910407   -0.09809789    1.62575376      11
Co     1.89198064    1.61815035   -0.09322020      12
Co    -1.70125210   -1.92587722   -0.10944411      13
Co     1.82372890   -0.07299566   -1.84329848      14
Co     0.06387605   -1.85650479   -1.79806637      15
Co     1.86175172   -0.10119229    1.69978876      16
Cr    -0.01758743   -1.78258870    1.61652376      17
Cr     0.00000000    0.00000000    0.00000000      18
          18
Lattice="  24.8920   0.0000   0.0000   0.0000  24.8920   0.0000   0.0000   0.0000  24.8920 " ConfE="      -5945.4251" DelE="          4.2790"
Ni     0.04370598    3.36106724   -0.09842831       1
Ni     0.04799510   -0.11742303   -3.68543811       2
Ni     0.04081717   -0.09821276    3.52560089       3
Co    -3.48775783   -0.10578868   -0.11667808       4
Cr     3.66198302   -0.04427620   -0.02770585       5
Cr     0.10557418   -3.65540017   -0.07806546       6
Ni    -0.09669270    1.71153757   -1.98255315       7
Ni    -1.68639248   -0.07912976   -1.77837624       8
Ni     1.82137758   -1.81425143   -0.19334510       9
Co     0.00322340    1.33684172    1.39823760      10
Co    -1.74676963   -0.19952271    1.65014294      11
Co     2.42460784    1.30824759    1.45406726      12
Co    -1.74651572   -1.93310012   -0.15229865      13
Co     1.84286686   -0.13600864   -1.98135373      14
Co     0.01547281   -1.85888297   -1.83377876      15
Co     1.63233820   -0.72180227    1.82835314      16
Cr    -0.23282098   -1.88264271    1.56384435      17
Cr     1.45167892    1.32302114   -0.40152947      18
          18
Lattice="  24.8920   0.0000   0.0000   0.0000  24.8920   0.0000   0.0000   0.0000  24.8920 " ConfE="      -5945.4884" DelE="          4.2156"
Ni     0.03822686    3.37603847   -0.09799980       1
Ni     0.05040964   -0.11711034   -3.66979093       2
Ni     0.04143188   -0.09963607    3.52483340       3
Co    -3.49537556   -0.10422474   -0.11680877       4
Cr     3.68476623   -0.04623733   -0.03326126       5
Cr     0.09888357   -3.67354703   -0.07914809       6
Ni    -0.07014750    1.66463917   -1.89264583       7
Ni    -1.72235458   -0.10473452   -1.80388268       8
Ni     1.82275393   -1.82885056   -0.19360899       9
Co     0.02244645    1.37706573    1.46537529      10
Co    -1.72586883   -0.16768842    1.61403959      11
Co     2.39765562    1.20506279    1.48589476      12
Co    -1.76549425   -1.94401812   -0.16634439      13
Co     1.81494590   -0.06962913   -1.88511173      14
Co     0.00906641   -1.86887940   -1.83265524      15
Co     1.62586759   -0.80944344    1.86114516      16
Cr    -0.25695876   -1.88133915    1.54000285      17
Cr     1.72061561    1.64123974   -0.44362898      18
