          18
Lattice="  24.8920   0.0000   0.0000   0.0000  24.8920   0.0000   0.0000   0.0000  24.8920 " ConfE="      -5940.2953" DelE="          0.0000"
Cr     3.48921465    0.10363161    0.05885383       1
Ni    -0.00342158   -3.34311488    0.02541068       2
Cr    -3.62553170    0.13614790    0.01194445       3
Co    -0.02677093    3.73925829    0.02474658       4
Co    -0.04209226    0.16971467    3.59909669       5
Ni    -0.04091210    0.14558285   -3.54120250       6
Ni     1.71344686    0.11549959    1.78024725       7
Ni     1.72021268    0.10919141   -1.74081686       8
Cr    -0.01502955   -1.68202170    1.83653799       9
Cr    -0.09282095   -1.63602778   -1.73370532      10
Ni     1.74794053    1.91229094    0.00155670      11
Co    -1.87503112   -1.62130002    0.03627926      12
Ni    -1.79762213    1.90142774    0.00771985      13
Co    -0.02928434    1.91828521    1.78426226      14
Co    -0.03151566    1.93319895   -1.78015499      15
Ni    -1.80087360    0.14351362    1.78677640      16
Ni    -1.82656880    0.12870352   -1.76816723      17
Co     0.00000000    0.00000000    0.00000000      18
          18
Lattice="  24.8920   0.0000   0.0000   0.0000  24.8920   0.0000   0.0000   0.0000  24.8920 " ConfE="      -5940.0650" DelE="          0.2303"
Cr     3.45221491    0.09757080    0.05571813       1
Ni     0.00270464   -3.32660889    0.03338500       2
Cr    -3.62522566    0.13179661    0.01746915       3
Co    -0.02208775    3.74254223    0.02105471       4
Co    -0.03251036    0.18705108    3.62803535       5
Ni    -0.04636033    0.14914914   -3.57072409       6
Ni     1.73786840    0.17827489    1.87005092       7
Ni     1.71345151    0.14459205   -1.80983101       8
Cr    -0.01610139   -1.72328216    1.99086259       9
Cr    -0.11661437   -1.68084411   -1.85734931      10
Ni     1.72806632    1.88461658   -0.00265050      11
Co    -1.85396313   -1.62036673    0.04451680      12
Ni    -1.75957048    1.88056587    0.00863304      13
Co    -0.01787929    1.94234051    1.80113915      14
Co    -0.03011132    1.96187830   -1.81006035      15
Ni    -1.73345563    0.13515629    1.75908524      16
Ni    -1.77435691    0.12029184   -1.74194940      17
Co     0.41721338   -0.63402400    0.05843850      18
          18
Lattice="  24.8920   0.0000   0.0000   0.0000  24.8920   0.0000   0.0000   0.0000  24.8920 " ConfE="      -5940.4816" DelE="         -0.1863"
Cr     3.51532153    0.14028186    0.05555542       1
Ni    -0.03563732   -3.40674342    0.02244630       2
Cr    -3.63390538    0.13941605    0.01505048       3
Co    -0.02760484    3.75792776    0.02563369       4
Co    -0.04689041    0.18140164    3.61937594       5
Ni    -0.04553332    0.15151340   -3.55754515       6
Ni     1.67089459    0.17324539    1.79192402       7
Ni     1.66773435    0.13562282   -1.72642625       8
Cr    -0.03300933   -1.67678707    1.84653727       9
Cr    -0.10571051   -1.64009826   -1.73702078      10
Ni     1.72981730    1.90319124    0.00443595      11
Co    -1.78276746   -1.59282011    0.02712489      12
Ni    -1.78603709    1.90315203    0.00673701      13
Co    -0.03752374    1.94894780    1.79096125      14
Co    -0.03800009    1.96044499   -1.79087593      15
Ni    -1.76099773    0.15144973    1.75757735      16
Ni    -1.79204279    0.13463304   -1.74845282      17
Co     1.64030934   -1.56376520    0.07134278      18
