          18
Lattice="  24.8920   0.0000   0.0000   0.0000  24.8920   0.0000   0.0000   0.0000  24.8920 " ConfE="      -5940.6897" DelE="          0.0000"
Ni    -3.46958440    0.00851899   -0.02542666       1
Ni     3.62803453    0.00941172   -0.00238966       2
Co     0.01204498    0.01021951   -3.52005538       3
Cr     0.02885448    0.04662628    3.57671638       4
Co     0.04890638   -3.51345685    0.02878343       5
Cr    -0.01169545    3.50712136   -0.02114279       6
Ni     0.03864134    1.74716092   -1.77932288       7
Ni    -0.02707131   -1.72430634   -1.77417290       8
Cr    -1.74347953   -1.78616779    0.04176674       9
Co    -1.71255078    1.76673861    0.00178530      10
Ni     0.05146274   -1.74156430    1.79320189      11
Ni     1.83272834    1.78166108    0.00058454      12
Co    -1.74963645    0.00284809    1.82971709      13
Cr    -0.00384185    1.76256674    1.74850161      14
Co     1.82166308    0.02605546    1.75770196      15
Cr     1.81300117   -1.74167625    0.01419174      16
Cr     1.81450836   -0.01170504   -1.74302221      17
Co     0.00000000    0.00000000    0.00000000      18
          18
Lattice="  24.8920   0.0000   0.0000   0.0000  24.8920   0.0000   0.0000   0.0000  24.8920 " ConfE="      -5939.9134" DelE="          0.7763"
Ni    -3.47476947    0.01806297   -0.00201605       1
Ni     3.61074666    0.01749027   -0.01973284       2
Co    -0.00766704   -0.00254230   -3.44983116       3
Cr     0.01841426    0.03252115    3.58880374       4
Co     0.06604615   -3.57585670    0.03879166       5
Cr     0.01579630    3.62078864    0.01153906       6
Ni     0.04791812    1.84055027   -1.77092538       7
Ni     0.06238238   -1.91767283   -1.80046579       8
Cr    -1.74379619   -1.90796665    0.09352118       9
Co    -1.70722996    1.91511952    0.05908127      10
Ni     0.05086786   -1.73336821    1.74672636      11
Ni     1.77108577    1.77026441   -0.00092826      12
Co    -1.67944325    0.01998492    1.72483372      13
Cr    -0.04578318    1.72709874    1.70957056      14
Co     1.78268611    0.02771376    1.72608117      15
Cr     1.77089968   -1.72597296    0.00402272      16
Cr     1.64367006   -0.03960403   -1.65661582      17
Co    -1.14392734   -0.10302980   -1.01685016      18
          18
Lattice="  24.8920   0.0000   0.0000   0.0000  24.8920   0.0000   0.0000   0.0000  24.8920 " ConfE="      -5940.4127" DelE="          0.2770"
Ni    -3.52792610    0.01184965    0.00743216       1
Ni     3.64558896    0.01714728   -0.00443645       2
Co     0.05016979    0.00605967   -3.54052154       3
Cr     0.02768490    0.04884582    3.59921972       4
Co     0.05507873   -3.53203960    0.03529917       5
Cr    -0.00094454    3.55352800   -0.01003436       6
Ni     0.05859316    1.73579628   -1.75082249       7
Ni     0.03682642   -1.74644292   -1.73454076       8
Cr    -1.73895983   -1.76557910    0.03388896       9
Co    -1.66928748    1.73159976    0.02739291      10
Ni     0.04861551   -1.69780517    1.74267721      11
Ni     1.81194645    1.76908986    0.00286334      12
Co    -1.72064351    0.00599984    1.78408862      13
Cr    -0.00546640    1.74849634    1.74011979      14
Co     1.79284321    0.03089495    1.72333058      15
Cr     1.82544742   -1.72489409    0.02096981      16
Cr     1.77594537   -0.01854420   -1.70217328      17
Co    -1.70959644   -0.05585611   -1.74093104      18
