          18
Lattice="  24.8920   0.0000   0.0000   0.0000  24.8920   0.0000   0.0000   0.0000  24.8920 " ConfE="      -5923.3215" DelE="          0.0000"
Co     0.01469366    0.03549141    3.43529588       1
Cr     3.52903486   -0.02003786   -0.01665783       2
Ni    -0.05164621   -0.01424713   -3.60305280       3
Ni    -3.61190153   -0.00220450   -0.03953194       4
Co    -0.03763699   -3.53489221   -0.01639599       5
Co    -0.03638724    3.50927771   -0.08196245       6
Co    -0.00412287   -1.70767172    1.71493828       7
Cr     0.07659758    1.73727020    1.76381414       8
Ni     1.72498555   -1.73399117   -0.03283422       9
Co     1.71937900    1.71606244   -0.01081104      10
Ni    -1.83942895   -0.00545246    1.74055696      11
Co     1.72598453    0.01867937   -1.83054285      12
Ni    -1.83001104   -0.02356006   -1.81909543      13
Co    -1.83439936   -1.80183606   -0.01567108      14
Ni    -1.81229381    1.74830052   -0.02580678      15
Ni    -0.06073153   -1.76385144   -1.82217532      16
Cr    -0.02950543    1.75290177   -1.82688731      17
Cr     0.00000000    0.00000000    0.00000000      18
          18
Lattice="  24.8920   0.0000   0.0000   0.0000  24.8920   0.0000   0.0000   0.0000  24.8920 " ConfE="      -5922.7679" DelE="          0.5536"
Co     0.00939177    0.02697642    3.45366689       1
Cr     3.53302328   -0.02753555   -0.02434283       2
Ni    -0.03988593   -0.01612058   -3.59636063       3
Ni    -3.60498129   -0.00628956   -0.03319014       4
Co    -0.04953795   -3.60602853   -0.02935428       5
Co    -0.04806164    3.57690174   -0.10213845       6
Co    -0.03888007   -1.85019100    1.72834492       7
Cr    -0.03403900    1.92966094    1.74855899       8
Ni     1.71795945   -1.85836516   -0.06722179       9
Co     1.75799313    1.86914828   -0.07684997      10
Ni    -1.75346095   -0.01327363    1.71277131      11
Co     1.68289830    0.03218630   -1.71690762      12
Ni    -1.80794636   -0.03091856   -1.79701533      13
Co    -1.80357911   -1.81352862   -0.00420680      14
Ni    -1.76768345    1.72640485   -0.03483327      15
Ni    -0.06049465   -1.74734748   -1.78583581      16
Cr     0.01920546    1.65929269   -1.71293854      17
Cr     0.92878637    0.06557384    1.01150217      18
          18
Lattice="  24.8920   0.0000   0.0000   0.0000  24.8920   0.0000   0.0000   0.0000  24.8920 " ConfE="      -5923.5550" DelE="         -0.2335"
Co    -0.03061524    0.02736117    3.52151554       1
Cr     3.55803535   -0.02961026   -0.06778902       2
Ni    -0.05349902   -0.01240073   -3.62202592       3
Ni    -3.62371607   -0.00516790   -0.04483059       4
Co    -0.03974588   -3.56473782   -0.02704065       5
Co    -0.04201811    3.55027991   -0.10437242       6
Co    -0.02691813   -1.70805215    1.69611631       7
Cr     0.00428801    1.77166999    1.68106492       8
Ni     1.68474281   -1.71712079   -0.05655039       9
Co     1.68208884    1.71677810   -0.02569439      10
Ni    -1.79326853   -0.00448695    1.70758411      11
Co     1.67999739    0.04556263   -1.78608956      12
Ni    -1.82014416   -0.02819024   -1.81426078      13
Co    -1.84525650   -1.82630914   -0.02382118      14
Ni    -1.78541806    1.72389478   -0.05880795      15
Ni    -0.07589815   -1.74017506   -1.81589141      16
Cr    -0.01098682    1.71725634   -1.80041060      17
Cr     1.64041870    0.00094633    1.74332530      18
