          18
Lattice="  24.8920   0.0000   0.0000   0.0000  24.8920   0.0000   0.0000   0.0000  24.8920 " ConfE="      -5950.0178" DelE="          0.0000"
Co    -3.52187514    0.03166646    0.00035474       1
Ni    -0.01239147   -0.00210085    3.52061331       2
Cr     3.55571299   -0.05016028    0.03951876       3
Ni     0.00651601   -0.00992694   -3.61077179       4
Co     0.00698372   -3.53585245   -0.01248220       5
Co    -0.06137032    3.52276670   -0.02250295       6
Ni    -1.78078282   -1.73180113   -0.00182876       7
Cr    -1.81434094    1.72999505    0.03365019       8
Ni    -0.00518335   -1.74421330    1.76298265       9
Ni    -0.06445918    1.73812829    1.76639728      10
Ni    -1.78811096   -0.01724946   -1.81296312      11
Ni     1.79016633   -0.02052130    1.76427717      12
Cr     1.77785299   -0.09976907   -1.73565852      13
Ni     0.00294935   -1.78958087   -1.80372470      14
Ni    -0.00205602    1.73263141   -1.78462406      15
Co     1.82857046   -1.77851168   -0.05727452      16
Ni     1.76592982    1.75272380   -0.01046876      17
Co     0.00000000    0.00000000    0.00000000      18
          18
Lattice="  24.8920   0.0000   0.0000   0.0000  24.8920   0.0000   0.0000   0.0000  24.8920 " ConfE="      -5945.6369" DelE="          4.3810"
Co    -3.62519329    0.05502698    0.02713011       1
Ni     0.00935747    0.02022756    3.65915018       2
Cr     3.60244414   -0.07116682    0.03787800       3
Ni    -0.00418302    0.02745405   -3.69608423       4
Co    -0.12497043   -3.57992201    0.10946058       5
Co    -0.07279741    3.44525439    0.01574928       6
Ni    -1.82672103   -1.61540173    0.08458286       7
Cr    -1.91733264    1.80810451   -0.06930863       8
Ni    -0.01798777   -1.67723313    1.80618945       9
Ni    -0.48868240    0.85962523    1.42752193      10
Ni    -2.07258418    0.15431252   -1.84143693      11
Ni     1.85101510    0.13026152    2.06191225      12
Cr     1.87026460   -0.05153041   -1.93708393      13
Ni    -0.26230346   -1.17730517   -1.62486893      14
Ni    -0.02764753    1.61753417   -1.76061865      15
Co     1.42362763   -2.65795098   -1.34115313      16
Ni     1.69625058    1.64046851    0.04008295      17
Co     1.49022376   -0.91466607    0.07888256      18
          18
Lattice="  24.8920   0.0000   0.0000   0.0000  24.8920   0.0000   0.0000   0.0000  24.8920 " ConfE="      -5950.0513" DelE="         -0.0335"
Co    -3.52295870    0.03309815    0.00039047       1
Ni    -0.01657668   -0.00466374    3.52915653       2
Cr     3.56724306   -0.06086832    0.04481710       3
Ni     0.00222421   -0.01486455   -3.61067517       4
Co    -0.00069394   -3.52861733   -0.00922305       5
Co    -0.06594793    3.51316391   -0.02567912       6
Ni    -1.79928674   -1.74459350    0.00270273       7
Cr    -1.83889984    1.75282547    0.02202810       8
Ni    -0.00857799   -1.75637312    1.78001194       9
Ni    -0.07744632    1.73671699    1.76914005      10
Ni    -1.79314926   -0.02309716   -1.81188000      11
Ni     1.78777823   -0.02864646    1.77193981      12
Cr     1.75672559   -0.16181263   -1.75275404      13
Ni    -0.03734259   -0.03013603    0.02372556      14
Ni    -0.00427192    1.71776721   -1.77705300      15
Co    -0.00117172   -1.80456852   -1.79186659      16
Ni     1.75897946    1.73011946   -0.01072109      17
Co     1.83035232   -1.78637883   -0.05514339      18
