          18
Lattice="  24.8920   0.0000   0.0000   0.0000  24.8920   0.0000   0.0000   0.0000  24.8920 " ConfE="      -5927.7337" DelE="          0.0000"
Co     0.00657117   -3.51579958    0.07609081       1
Ni     0.00897968   -0.01694153   -3.36135534       2
Co    -0.03476343    3.62747413    0.09045501       3
Co     0.00706424    0.05758870    3.60938696       4
Cr    -3.57306523    0.02426435    0.03670736       5
Co     3.52639811    0.04040021    0.09623787       6
Ni    -1.75514197   -1.75378831    0.00983056       7
Co     1.73237143   -1.70567037    0.02143002       8
Cr    -1.81596880    0.01022985   -1.70649108       9
Cr     1.77634226   -0.00533743   -1.58920710      10
Ni    -0.01824523   -1.71095145    1.85989008      11
Ni     0.00317386    1.83464307   -1.66901673      12
Ni     0.00719052    1.79538404    1.84306277      13
Ni    -1.77542532    0.03085266    1.81735322      14
Cr     1.82336416   -0.05046486    1.79718950      15
Ni    -1.79329479    1.80164736    0.06665407      16
Ni     1.78253018    1.79656867    0.09073862      17
Co     0.00000000    0.00000000    0.00000000      18
          18
Lattice="  24.8920   0.0000   0.0000   0.0000  24.8920   0.0000   0.0000   0.0000  24.8920 " ConfE="      -5927.2515" DelE="          0.4822"
Co    -0.00051229   -3.46285453    0.04229099       1
Ni     0.00816646    0.01409918   -3.42140783       2
Co    -0.04411186    3.61185083    0.08126153       3
Co     0.00090185    0.04669218    3.61737101       4
Cr    -3.65318912    0.03132723    0.06522234       5
Co     3.56191784    0.03735918    0.09788929       6
Ni    -1.86731337   -1.75446305    0.08031305       7
Co     1.84272032   -1.72849762    0.11724367       8
Cr    -1.91707885    0.05604124   -1.71588190       9
Cr     1.92714295    0.08857495   -1.64932355      10
Ni    -0.02180562   -1.68852378    1.81886496      11
Ni     0.00259242    1.75143650   -1.63452444      12
Ni     0.00499347    1.75717308    1.82159324      13
Ni    -1.77173932    0.02069745    1.79822987      14
Cr     1.79959973   -0.07120824    1.78020251      15
Ni    -1.78930595    1.75342886    0.06106306      16
Ni     1.76307918    1.73895762    0.09418944      17
Co     0.01604695   -0.96652053   -1.11163307      18
          18
Lattice="  24.8920   0.0000   0.0000   0.0000  24.8920   0.0000   0.0000   0.0000  24.8920 " ConfE="      -5927.7436" DelE="         -0.0099"
Co     0.00250526   -3.53250593    0.09980059       1
Ni     0.00912626    0.03433689   -3.46166052       2
Co    -0.03691949    3.62209305    0.09069614       3
Co     0.00667184    0.05694734    3.63000298       4
Cr    -3.61464681    0.02587438    0.03998181       5
Co     3.54296965    0.03916009    0.10199225       6
Ni    -1.77034901   -1.72249174    0.05367720       7
Co     1.71995145   -1.64647462    0.06288010       8
Cr    -1.77578425    0.00372145   -1.68575579       9
Cr     1.72372219   -0.02926006   -1.59317316      10
Ni    -0.01085729   -1.68302391    1.83674125      11
Ni     0.00735127    1.76268772   -1.63090240      12
Ni     0.01703984    1.76756170    1.83417779      13
Ni    -1.76022057    0.03143901    1.80396260      14
Cr     1.82843731   -0.05593674    1.81829573      15
Ni    -1.78365736    1.76623112    0.06531205      16
Ni     1.76724642    1.74030380    0.09786329      17
Co    -0.01728386   -1.69649930   -1.67822393      18
