          18
Lattice="  24.8920   0.0000   0.0000   0.0000  24.8920   0.0000   0.0000   0.0000  24.8920 " ConfE="      -5923.8161" DelE="          0.0000"
Ni     0.00869828    3.37004149    0.06392548       1
Ni     0.01409897   -0.11106477    3.65234795       2
Co    -0.02366202   -0.04423145   -3.38160758       3
Co     0.00070994   -3.58472605    0.09796453       4
Co    -3.56307491   -0.06338040    0.04076467       5
Co     3.56514033   -0.04010383    0.06828344       6
Co    -1.79716466    1.62653409   -0.00401882       7
Cr     1.78290451    1.57836451    0.02316807       8
Ni    -0.00888687   -1.83113698   -1.68809225       9
Cr    -1.85040726   -0.00475671   -1.65394766      10
Cr     1.78712363   -0.06680376   -1.72030501      11
Ni    -0.00743544    1.69303088    1.87515801      12
Ni    -1.79506905   -0.06050628    1.85554530      13
Cr    -1.83422464   -1.77421466    0.03446716      14
Cr     1.81069266   -1.72052176    0.05937049      15
Cr    -0.00255605   -1.81204412    1.82514195      16
Co     1.76030666   -0.06120715    1.84565198      17
Co     0.00000000    0.00000000    0.00000000      18
          18
Lattice="  24.8920   0.0000   0.0000   0.0000  24.8920   0.0000   0.0000   0.0000  24.8920 " ConfE="      -5922.6918" DelE="          1.1243"
Ni     0.00471110    3.33098834    0.07024828       1
Ni     0.00436437   -0.12570199    3.61049492       2
Co    -0.02481287   -0.07090419   -3.40683867       3
Co     0.00360665   -3.48338350    0.12865441       4
Co    -3.63813210   -0.08271437    0.05566980       5
Co     3.65587829   -0.04908638    0.08793835       6
Co    -1.90449954    1.60514049    0.07981685       7
Cr     1.84481847    1.49663472    0.11781248       8
Ni     0.00804519   -1.74781672   -1.62872194       9
Cr    -1.97506790   -0.10607917   -1.66059444      10
Cr     1.95656582   -0.13163203   -1.73517889      11
Ni    -0.01488772    1.63144483    1.84315514      12
Ni    -1.89224257   -0.04571677    1.88771991      13
Cr    -1.93903841   -1.78189658    0.03868758      14
Cr     1.95441482   -1.74333989    0.01345081      15
Cr     0.06124672   -0.94777395    0.98336757      16
Co     1.89510214   -0.02896287    1.92315819      17
Co     0.00440630    0.80362403   -1.00506034      18
          18
Lattice="  24.8920   0.0000   0.0000   0.0000  24.8920   0.0000   0.0000   0.0000  24.8920 " ConfE="      -5923.5105" DelE="          0.3056"
Ni     0.00936115    3.40759366    0.09125236       1
Ni     0.02288014   -0.14654224    3.63124647       2
Co    -0.02412942   -0.08771422   -3.42401870       3
Co    -0.00281396   -3.51865617    0.13570124       4
Co    -3.53226678   -0.07811712    0.04699754       5
Co     3.55491872   -0.04922746    0.07910543       6
Co    -1.77935509    1.61547115    0.06018803       7
Cr     1.78049923    1.57735776    0.04551427       8
Ni     0.00663808   -1.82700997   -1.70910797       9
Cr    -1.85995627   -0.07030978   -1.65867940      10
Cr     1.84748321   -0.10833733   -1.72227274      11
Ni    -0.00294278    1.69545815    1.87041621      12
Ni    -1.76934879   -0.12401028    1.86503231      13
Cr    -1.81233383   -1.82638549    0.07419664      14
Cr     1.80213916   -1.74643528    0.10718593      15
Cr    -0.00877563   -0.12004464    0.10983680      16
Co     1.74309999   -0.10716706    1.84122569      17
Co    -0.01217287    1.60770264   -1.66049956      18
