          18
Lattice="  24.8920   0.0000   0.0000   0.0000  24.8920   0.0000   0.0000   0.0000  24.8920 " ConfE="      -5940.9519" DelE="          0.0000"
Ni     0.03688719    3.65305495    0.02807177       1
Co     3.49150374    0.01874928    0.01467030       2
Cr    -0.05579047   -3.59925818   -0.02141559       3
Cr    -3.53842165    0.07088057   -0.07359629       4
Cr     0.00739441    0.04723600   -3.53544952       5
Co    -0.04088180    0.05165813    3.52777215       6
Cr     0.20978116    1.83537883   -1.55878907       7
Cr     0.23362093    1.78498625    1.59239781       8
Co     1.75985142    0.01956042   -1.74541899       9
Co     1.76739304   -0.03390362    1.73751789      10
Co    -1.78305007    1.83366402   -0.00487460      11
Cr     1.68689089   -1.83121846   -0.03272244      12
Cr    -1.76620516   -1.76629474   -0.01679087      13
Co    -1.72907105    0.08448131   -1.78635163      14
Cr    -1.76232539    0.05514724    1.74812209      15
Co    -0.03600250   -1.75998157   -1.79931718      16
Ni    -0.01086966   -1.81113815    1.82824621      17
Cr     0.00000000    0.00000000    0.00000000      18
          18
Lattice="  24.8920   0.0000   0.0000   0.0000  24.8920   0.0000   0.0000   0.0000  24.8920 " ConfE="      -5940.4091" DelE="          0.5428"
Ni     0.04457303    3.58245220    0.02422475       1
Co     3.44185372    0.01281922    0.02977944       2
Cr    -0.04686053   -3.58699427   -0.01972654       3
Cr    -3.47645787    0.07692789   -0.10052740       4
Cr     0.00539264    0.02084566   -3.63911339       5
Co    -0.05744754    0.01142947    3.63992629       6
Cr     0.01732906    1.90248170   -1.92315766       7
Cr     0.08154895    1.84631572    1.95956452       8
Co     1.75482718   -0.01208382   -1.86732384       9
Co     1.74630522   -0.05876442    1.85535873      10
Co    -1.65308186    1.80184763   -0.00793655      11
Cr     1.53625399   -1.72180742   -0.04504811      12
Cr    -1.58445984   -1.65508607   -0.06312777      13
Co    -1.64034592    0.10833041   -1.77448423      14
Cr    -1.57716412    0.12208257    1.60165695      15
Co    -0.00952213   -1.72317964   -1.81721544      16
Ni    -0.00853502   -1.77303002    1.85269027      17
Cr     1.01571143    1.12712362   -0.00817002      18
          18
Lattice="  24.8920   0.0000   0.0000   0.0000  24.8920   0.0000   0.0000   0.0000  24.8920 " ConfE="      -5940.8389" DelE="          0.1130"
Ni     0.01256062    3.62164009    0.01814098       1
Co     3.54609500    0.00143986    0.04020986       2
Cr    -0.03898216   -3.57784830   -0.02996554       3
Cr    -3.55601254    0.05494605   -0.06507506       4
Cr     0.01131757    0.05235055   -3.58333899       5
Co    -0.06283367    0.02320824    3.59689308       6
Cr    -0.00389004    1.78186644   -1.71196626       7
Cr     0.00845344    1.73027238    1.71763998       8
Co     1.74564441    0.02748338   -1.75773206       9
Co     1.72814875   -0.00627807    1.74546433      10
Co    -1.73721466    1.77916748   -0.01049293      11
Cr     1.55958949   -1.66554011   -0.03390285      12
Cr    -1.59426359   -1.65827501   -0.06238508      13
Co    -1.73238900    0.06330716   -1.78329837      14
Cr    -1.74414265    0.04062203    1.67979965      15
Co    -0.01837377   -1.70642831   -1.80379115      16
Ni    -0.02218348   -1.77262554    1.84558453      17
Cr     1.72976523    1.70262633   -0.00435218      18
