          18
Lattice="  24.8920   0.0000   0.0000   0.0000  24.8920   0.0000   0.0000   0.0000  24.8920 " ConfE="      -5938.1028" DelE="          0.0000"
Ni     3.48362736    0.01109179   -0.03541877       1
Ni    -0.01575456    0.00873349   -3.59514661       2
Ni    -0.04603560   -0.00774726    3.53879801       3
Cr    -3.57237850    0.02001309   -0.02029065       4
Co     0.03647089   -3.52319210   -0.02178780       5
Cr    -0.04815510    3.56692325   -0.02533391       6
Ni     0.05210568   -1.71059961   -1.78497604       7
Ni     0.02855451    1.75743342   -1.81442244       8
Ni     1.72149712    1.78457204   -0.00454563       9
Cr     1.76642600   -1.74486567    0.06319609      10
Ni    -1.82094091    0.00124851   -1.80485085      11
Ni    -1.76712224   -1.75574425   -0.01326497      12
Co     1.75594670    0.01251734    1.81574222      13
Cr     0.00362078   -1.82168941    1.82226111      14
Cr    -1.78562490    0.03445791    1.76058347      15
Co    -0.02608019    1.79314088    1.76600125      16
Co    -1.78806961    1.78079759   -0.03398287      17
Ni     0.00000000    0.00000000    0.00000000      18
          18
Lattice="  24.8920   0.0000   0.0000   0.0000  24.8920   0.0000   0.0000   0.0000  24.8920 " ConfE="      -5937.3211" DelE="          0.7817"
Ni     3.44449883    0.02233325   -0.03624014       1
Ni     0.01345612   -0.00262435   -3.53361232       2
Ni    -0.04077385   -0.00971770    3.54846484       3
Cr    -3.55890289    0.01450224   -0.05489809       4
Co     0.01140066   -3.58594375   -0.00070988       5
Cr    -0.08568702    3.64957963    0.01228533       6
Ni    -0.02493173   -1.92638351   -1.84291881       7
Ni    -0.00578457    1.89540010   -1.81178756       8
Ni     1.71886499    1.93879504    0.04141541       9
Cr     1.78399722   -1.94985156    0.11006573      10
Ni    -1.70849876   -0.00850611   -1.76665092      11
Ni    -1.71182336   -1.74489157   -0.01415580      12
Co     1.69657856   -0.01486574    1.74000593      13
Cr     0.01162290   -1.77011827    1.77445087      14
Cr    -1.67991217    0.03722553    1.66627790      15
Co    -0.03371386    1.74538362    1.73343995      16
Co    -1.73908748    1.75350705   -0.02756039      17
Ni     1.02399795   -0.07381004   -0.95951394      18
          18
Lattice="  24.8920   0.0000   0.0000   0.0000  24.8920   0.0000   0.0000   0.0000  24.8920 " ConfE="      -5938.0444" DelE="          0.0584"
Ni     3.52302730    0.01806196   -0.00387518       1
Ni    -0.03175558    0.00510315   -3.61480403       2
Ni    -0.04708131   -0.00830852    3.56608243       3
Cr    -3.58666715    0.01975045   -0.02978526       4
Co     0.02847352   -3.54875422   -0.01416630       5
Cr    -0.06721793    3.59341894   -0.01102945       6
Ni     0.00817005   -1.72839698   -1.76373767       7
Ni    -0.02214238    1.78364589   -1.80123202       8
Ni     1.67607424    1.76991528    0.01252998       9
Cr     1.69872433   -1.69854032    0.10228286      10
Ni    -1.80364827    0.00372362   -1.79632068      11
Ni    -1.71799479   -1.70498285    0.00197657      12
Co     1.69774635   -0.02326851    1.74917581      13
Cr    -0.01257160   -1.78651020    1.81403134      14
Cr    -1.72713141    0.04807946    1.71514561      15
Co    -0.05403906    1.73052690    1.74065632      16
Co    -1.76418144    1.73686971   -0.02483966      17
Ni     1.71685330    0.01681002   -1.76480193      18
