          18
Lattice="  24.8920   0.0000   0.0000   0.0000  24.8920   0.0000   0.0000   0.0000  24.8920 " ConfE="      -5941.0080" DelE="          0.0000"
Ni     0.03374005   -3.43947509    0.01309341       1
Cr     0.06923829    0.00745076   -3.49404856       2
Co     0.04892945    3.65257203    0.01608828       3
Co     0.10416987    0.11073322    3.59149634       4
Co    -3.49555966    0.09020397    0.02977438       5
Co     3.63011632    0.07748655    0.03420582       6
Cr    -1.69491269    0.01480462   -1.76393114       7
Cr     1.80262539   -0.12046500   -1.74736406       8
Cr    -1.76470327   -1.68073511   -0.00754339       9
Co     1.82832498   -1.70671169    0.06162481      10
Ni     0.01703333    1.85143661    1.78905455      11
Cr     0.02115034    1.83298822   -1.74741223      12
Cr     0.02393199   -1.69089251    1.86326269      13
Co    -1.73518350    0.06865490    1.82647214      14
Cr     1.81117990    0.10703795    1.74985928      15
Co    -1.73860431    1.83406412   -0.00191578      16
Cr     1.77659793    1.77403855   -0.04091865      17
Ni     0.00000000    0.00000000    0.00000000      18
          18
Lattice="  24.8920   0.0000   0.0000   0.0000  24.8920   0.0000   0.0000   0.0000  24.8920 " ConfE="      -5940.6573" DelE="          0.3507"
Ni     0.04115508   -3.34707393    0.00472642       1
Cr     0.05608899   -0.00622528   -3.44788044       2
Co     0.04910739    3.64790756    0.00194026       3
Co     0.10367888    0.11233048    3.60903084       4
Co    -3.56370718    0.11328119    0.06365806       5
Co     3.68591629    0.09471637    0.08013998       6
Cr    -1.89299824    0.10784196   -1.75361167       7
Cr     2.12319193   -0.06123328   -1.79861660       8
Cr    -1.88470064   -1.63349503    0.06329568       9
Co     2.02314222   -1.74616029    0.16348746      10
Ni     0.01197207    1.81438277    1.75628818      11
Cr    -0.01675603    1.75352740   -1.73611591      12
Cr    -0.01742668   -1.58716675    1.77427474      13
Co    -1.72602760    0.06529897    1.78968021      14
Cr     1.75846770    0.09488353    1.69922717      15
Co    -1.72510174    1.79638702   -0.01469702      16
Cr     1.68055096    1.65247085   -0.08808188      17
Ni     0.10481475   -0.73818031   -0.81489091      18
          18
Lattice="  24.8920   0.0000   0.0000   0.0000  24.8920   0.0000   0.0000   0.0000  24.8920 " ConfE="      -5941.0105" DelE="         -0.0025"
Ni     0.03380476   -3.53155583    0.06082269       1
Cr     0.06487709    0.04337009   -3.53998643       2
Co     0.03817841    3.68931196    0.01281938       3
Co     0.12043133    0.11886493    3.58969918       4
Co    -3.53346999    0.11117115    0.04712890       5
Co     3.65748380    0.09376387    0.04761734       6
Cr    -1.67051865    0.08677190   -1.66323432       7
Cr     1.78163659    0.01487878   -1.61869491       8
Cr    -1.72105589   -1.61151768    0.07081924       9
Co     1.81960535   -1.71954776    0.08066775      10
Ni     0.01160325    1.86259579    1.77853707      11
Cr     0.01907639    1.79651455   -1.71577705      12
Cr     0.00474803   -1.64511183    1.78985248      13
Co    -1.69651760    0.07487639    1.77356538      14
Cr     1.68348992    0.09332990    1.55489108      15
Co    -1.70568725    1.81321661   -0.00757215      16
Cr     1.74141860    1.82847791   -0.02522963      17
Ni     0.04781903   -1.71791887   -1.68912914      18
