          18
Lattice="  24.8920   0.0000   0.0000   0.0000  24.8920   0.0000   0.0000   0.0000  24.8920 " ConfE="      -5937.8196" DelE="          0.0000"
Cr    -3.60311102   -0.04384500   -0.03660403       1
Co    -0.06393172   -3.47512432   -0.07456530       2
Ni    -0.08778844    0.03469868   -3.53315460       3
Co    -0.03444365    3.57395048   -0.00846591       4
Cr     3.54020397   -0.06968643   -0.07173780       5
Cr    -0.00926134   -0.03378338    3.52764162       6
Cr    -1.83043137   -0.27357362   -1.58062943       7
Cr    -0.04160841   -1.80992900   -1.78284832       8
Cr    -1.80592891   -0.16809796    1.63193577       9
Co    -0.09486354   -1.75347087    1.71247290      10
Ni     1.75881270    1.79525627    0.00222947      11
Ni     1.78391122    0.01510936    1.76922768      12
Ni    -0.03672685    1.77553034    1.78775785      13
Co     1.69939534   -0.00856757   -1.78666689      14
Cr    -0.11482884    1.84042375   -1.75064874      15
Co    -1.81183354    1.76527314   -0.02597034      16
Cr     1.78563984   -1.79328612   -0.02263874      17
Ni     0.00000000    0.00000000    0.00000000      18
          18
Lattice="  24.8920   0.0000   0.0000   0.0000  24.8920   0.0000   0.0000   0.0000  24.8920 " ConfE="      -5937.3518" DelE="          0.4678"
Cr    -3.49536291   -0.07843842   -0.05793826       1
Co    -0.05664996   -3.44188021   -0.06697110       2
Ni    -0.04095292    0.03855869   -3.61895483       3
Co    -0.04255905    3.57466598   -0.01855178       4
Cr     3.54269489   -0.07800810   -0.06545582       5
Cr     0.02050979   -0.02606959    3.59506690       6
Cr    -1.90468327   -0.08736379   -1.95595613       7
Cr    -0.07150598   -1.87304974   -2.02935528       8
Cr    -1.80624217   -0.10086263    1.84552374       9
Co    -0.05423048   -1.76118762    1.84518564      10
Ni     1.71766338    1.76351409   -0.00240218      11
Ni     1.74740997    0.00653982    1.75951583      12
Ni    -0.03621834    1.75700364    1.78534535      13
Co     1.61431442   -0.04604074   -1.73267533      14
Cr    -0.15171855    1.72101229   -1.71145650      15
Co    -1.78482293    1.70435471   -0.01813214      16
Cr     1.74340627   -1.76256978   -0.01791653      17
Ni    -0.53597234   -0.53004354   -0.14351142      18
          18
Lattice="  24.8920   0.0000   0.0000   0.0000  24.8920   0.0000   0.0000   0.0000  24.8920 " ConfE="      -5937.9655" DelE="         -0.1459"
Cr    -3.62610819   -0.00216860   -0.05672527       1
Co    -0.04596281   -3.54055470   -0.06171866       2
Ni    -0.04648297    0.03858941   -3.60678189       3
Co    -0.03317076    3.59392674   -0.01459872       4
Cr     3.55135624   -0.07336934   -0.06523480       5
Cr     0.02557109   -0.02978317    3.58245456       6
Cr    -1.77198523   -0.00166960   -1.73701865       7
Cr    -0.04835381   -1.71559998   -1.75033074       8
Cr    -1.74043203   -0.00771903    1.77939998       9
Co    -0.04432890   -1.68827549    1.70825385      10
Ni     1.72226611    1.76526743    0.00011567      11
Ni     1.75650752    0.02138349    1.74527902      12
Ni    -0.01359851    1.77170176    1.78174038      13
Co     1.62257018   -0.01719896   -1.72347057      14
Cr    -0.10073536    1.77372654   -1.72345694      15
Co    -1.76058298    1.70124972   -0.00855567      16
Cr     1.68984926   -1.75685170   -0.01686477      17
Ni    -1.80154350   -1.73844656    0.01059837      18
