          18
Lattice="  24.8920   0.0000   0.0000   0.0000  24.8920   0.0000   0.0000   0.0000  24.8920 " ConfE="      -5923.6879" DelE="          0.0000"
Cr     0.00484912    0.05111098    3.46159000       1
Ni    -0.00481714    3.44071910   -0.01574223       2
Co    -0.01960197   -0.07430400   -3.58747068       3
Co    -0.02371163   -3.64558063   -0.03074501       4
Cr    -3.57930700   -0.06872219   -0.03369161       5
Co     3.59288356   -0.02940316   -0.04131840       6
Cr    -1.78070313   -0.02020626    1.77038140       7
Cr     1.75230187   -0.00522472    1.74040142       8
Ni    -1.77650312    1.70935128   -0.00828856       9
Cr     1.81386715    1.70036867   -0.01089692      10
Ni     0.00189950   -1.82308123    1.73695803      11
Cr    -0.07489224    1.77934880   -1.90121449      12
Cr    -0.04463944   -1.85833253   -1.79289568      13
Cr    -1.78468295   -1.82012315   -0.00498671      14
Ni     1.78642952   -1.81406170   -0.02319413      15
Ni    -1.77895030   -0.05093586   -1.80011860      16
Ni     1.76197634   -0.04846816   -1.79348160      17
Ni     0.00000000    0.00000000    0.00000000      18
          18
Lattice="  24.8920   0.0000   0.0000   0.0000  24.8920   0.0000   0.0000   0.0000  24.8920 " ConfE="      -5919.3746" DelE="          4.3133"
Cr     0.01116448    0.08713994    3.48619340       1
Ni    -0.96316592    2.94068064    0.12244620       2
Co    -0.01264149   -0.08094133   -3.68036282       3
Co    -0.02267191   -3.63691280   -0.02441770       4
Cr    -3.57287731   -0.05201584   -0.09602933       5
Co     3.62684903   -0.04491041   -0.02063546       6
Cr    -1.89239179   -0.07202184    2.01246098       7
Cr     1.89253303   -0.24862353    2.05005731       8
Ni    -1.08686176    0.62791381    0.02712963       9
Cr     1.23143290    2.98934580   -0.37759609      10
Ni    -0.02213066   -1.77970156    1.75630326      11
Cr    -0.13457044    1.68318661   -1.95789764      12
Cr    -0.02582987   -1.68647463   -1.69992477      13
Cr    -1.76830532   -1.82312735   -0.03910214      14
Ni     1.76492119   -1.75286011    0.00241065      15
Ni    -1.84403931   -0.13259077   -2.03207620      16
Ni     1.76969696   -0.05493789   -1.92582441      17
Ni     1.26489794    0.79306653    0.18050777      18
          18
Lattice="  24.8920   0.0000   0.0000   0.0000  24.8920   0.0000   0.0000   0.0000  24.8920 " ConfE="      -5923.6963" DelE="         -0.0085"
Cr    -0.00080413    0.06823698    3.43971600       1
Ni    -1.78264290    1.69674609   -0.00894322       2
Co    -0.02012940   -0.07730700   -3.58450401       3
Co    -0.02309969   -3.64274068   -0.03173666       4
Cr    -3.58010227   -0.07194940   -0.03789815       5
Co     3.60609983   -0.03141013   -0.03624385       6
Cr    -1.80998074   -0.05096793    1.77090187       7
Cr     1.76754429   -0.05518476    1.76990218       8
Ni    -0.01308088   -0.02019537    0.01168501       9
Cr    -0.06647805    3.44630058    0.06457065      10
Ni    -0.00642822   -1.82400205    1.73768080      11
Cr    -0.05705373    1.79122923   -1.86040184      12
Cr    -0.04798276   -1.86857579   -1.79349549      13
Cr    -1.79634588   -1.83795877   -0.01345047      14
Ni     1.78651520   -1.81779642   -0.02427553      15
Ni    -1.77542623   -0.05557881   -1.79952112      16
Ni     1.76392387   -0.05261015   -1.78506931      17
Ni     1.73132004    1.71561571    0.00219243      18
