          18
Lattice="  24.8920   0.0000   0.0000   0.0000  24.8920   0.0000   0.0000   0.0000  24.8920 " ConfE="      -5949.6165" DelE="          0.0000"
Cr    -0.01826999    0.01756990    3.45932086       1
Ni     0.00791688    3.47369221   -0.01585954       2
Co    -0.00726218   -0.03177290   -3.57450278       3
Co    -0.02256824   -3.59161594   -0.00942428       4
Ni    -3.55167322   -0.05044691   -0.01275884       5
Cr     3.52833534   -0.05095495    0.03350105       6
Co    -1.73499006    0.03472059    1.78387605       7
Cr     1.72860902   -0.04169530    1.75392630       8
Cr    -1.75609526    1.75767558   -0.05155060       9
Ni     1.75436195    1.73830657    0.00748836      10
Cr    -0.02704131   -1.83662450    1.74295215      11
Cr     0.05238624    1.73677130   -1.89751661      12
Ni     0.00104439   -1.81447290   -1.79147435      13
Ni    -1.78152623   -1.81864897   -0.01048269      14
Co     1.76871240   -1.81781392   -0.00283048      15
Ni    -1.77114061   -0.03325700   -1.79938981      16
Co     1.78997684   -0.04313481   -1.77373567      17
Ni     0.00000000    0.00000000    0.00000000      18
          18
Lattice="  24.8920   0.0000   0.0000   0.0000  24.8920   0.0000   0.0000   0.0000  24.8920 " ConfE="      -5949.1769" DelE="          0.4396"
Cr    -0.00557164    0.04851522    3.36757539       1
Ni     0.02797709    3.45718037   -0.02484320       2
Co    -0.00523009   -0.02726845   -3.58435727       3
Co    -0.02423875   -3.59125818    0.00091923       4
Ni    -3.59293202   -0.06378030   -0.03247538       5
Cr     3.59278845   -0.06656634   -0.01615155       6
Co    -1.93025375   -0.03079006    1.81551722       7
Cr     1.97617748   -0.02712356    1.78092102       8
Cr    -1.86538027    1.77007200   -0.09956491       9
Ni     1.91922226    1.79411335   -0.03911145      10
Cr    -0.01116100   -1.77874688    1.71422351      11
Cr     0.08019171    1.69198696   -1.82417375      12
Ni     0.00706520   -1.79427590   -1.76248552      13
Ni    -1.77110140   -1.79521970    0.00153012      14
Co     1.73453062   -1.76492884    0.03664616      15
Ni    -1.74682478   -0.03217397   -1.76977569      16
Co     1.76218277   -0.02297460   -1.73129727      17
Ni     0.02569151    0.52150867    0.59642864      18
          18
Lattice="  24.8920   0.0000   0.0000   0.0000  24.8920   0.0000   0.0000   0.0000  24.8920 " ConfE="      -5949.7602" DelE="         -0.1436"
Cr    -0.03342146   -0.04832760    3.53568547       1
Ni     0.00146076    3.52292472   -0.04695377       2
Co    -0.00726139   -0.03562474   -3.59596287       3
Co    -0.02656206   -3.61413988   -0.00931697       4
Ni    -3.57028746   -0.06366670   -0.02471758       5
Cr     3.56488175   -0.04979569    0.02812946       6
Co    -1.74808406   -0.04351854    1.74206385       7
Cr     1.69809943   -0.09160441    1.68867250       8
Cr    -1.74222089    1.70951077   -0.12831761       9
Ni     1.75150930    1.71322293   -0.02977593      10
Cr    -0.03296279   -1.76141179    1.70706867      11
Cr     0.03664433    1.69467884   -1.82594953      12
Ni     0.00503900   -1.80441125   -1.77098725      13
Ni    -1.76279657   -1.81336337   -0.02008977      14
Co     1.72380630   -1.77718569    0.02432824      15
Ni    -1.74074495   -0.05757967   -1.78252606      16
Co     1.75878600   -0.05102891   -1.74393629      17
Ni    -0.01674951    1.69798659    1.69277927      18
