          18
Lattice="  24.8920   0.0000   0.0000   0.0000  24.8920   0.0000   0.0000   0.0000  24.8920 " ConfE="      -5931.3255" DelE="          0.0000"
Ni     0.02444541   -3.57115644    0.01923063       1
Cr    -0.04520012    0.01628727    3.54807526       2
Cr    -0.03220816    3.58359068    0.02485100       3
Co     0.00136012   -0.05534047   -3.55674901       4
Co     3.54139746    0.01822259    0.02748865       5
Cr    -3.56606291   -0.01181148   -0.01982786       6
Ni    -1.75056194    0.03728983    1.75716539       7
Ni    -1.73533892    1.80381387    0.04336872       8
Ni     0.00026781   -1.78026426   -1.73779717       9
Co     1.68914952    0.07693944    1.78966969      10
Cr     1.70583613    1.71037325   -0.00039593      11
Co     0.02079729   -1.78791783    1.79306420      12
Cr     1.77858729   -1.70300283    0.04906926      13
Co    -1.77798856   -1.78302734    0.01057317      14
Cr     0.01001344    1.77487088   -1.83700705      15
Co     1.77909575   -0.01840502   -1.78606585      16
Co    -1.78321319   -0.00219123   -1.75456969      17
Cr     0.00000000    0.00000000    0.00000000      18
          18
Lattice="  24.8920   0.0000   0.0000   0.0000  24.8920   0.0000   0.0000   0.0000  24.8920 " ConfE="      -5930.4923" DelE="          0.8332"
Ni     0.03068937   -3.55820635    0.02759595       1
Cr    -0.03896880   -0.00621056    3.54414165       2
Cr    -0.06212230    3.55918664   -0.01209148       3
Co    -0.00682830   -0.05578912   -3.57190046       4
Co     3.61773260   -0.00234081    0.02722251       5
Cr    -3.65015181   -0.03689090   -0.05173380       6
Ni    -1.85532603   -0.00129283    1.74955943       7
Ni    -1.88484748    1.80676233   -0.00003494       8
Ni     0.00184704   -1.71461438   -1.67719656       9
Co     1.88982479    0.00726238    1.86696774      10
Cr     1.92480856    1.65163333   -0.10864790      11
Co     0.04268960   -1.69518394    1.75023263      12
Cr     1.73867496   -1.59473203    0.07023518      13
Co    -1.77008298   -1.74253583    0.01470398      14
Cr    -0.02086198    1.75196441   -1.80234573      15
Co     1.74760140   -0.00466349   -1.74027473      16
Co    -1.76277764    0.01764166   -1.71498660      17
Cr     0.09477221    0.80753035    0.76663823      18
          18
Lattice="  24.8920   0.0000   0.0000   0.0000  24.8920   0.0000   0.0000   0.0000  24.8920 " ConfE="      -5930.9932" DelE="          0.3322"
Ni     0.02584091   -3.57115411    0.01988572       1
Cr    -0.04681353   -0.02482557    3.60966534       2
Cr    -0.04546635    3.62228919   -0.00101984       3
Co     0.00020046   -0.06410350   -3.59423372       4
Co     3.58506910    0.01101321    0.02308251       5
Cr    -3.58255238   -0.02286031   -0.03192129       6
Ni    -1.74822606    0.00935763    1.72349534       7
Ni    -1.75234146    1.77343454   -0.00802034       8
Ni     0.00697274   -1.73067603   -1.69393288       9
Co     1.73639638    0.02464985    1.78393305      10
Cr     1.62938486    1.51984277   -0.06924745      11
Co     0.03850892   -1.72724340    1.76117062      12
Cr     1.73801274   -1.65243902    0.06072267      13
Co    -1.76740829   -1.76146831   -0.00144284      14
Cr    -0.00748073    1.74178771   -1.81136515      15
Co     1.76267908   -0.03200058   -1.77917098      16
Co    -1.76897078    0.00089352   -1.75867707      17
Cr    -0.01003646    1.74147111    1.74884115      18
