          18
Lattice="  24.8920   0.0000   0.0000   0.0000  24.8920   0.0000   0.0000   0.0000  24.8920 " ConfE="      -5942.8703" DelE="          0.0000"
Cr    -0.04196534   -0.00087399   -3.41454534       1
Co     3.41806995    0.05920446   -0.05641994       2
Ni    -0.09471131    0.03559580    3.61853124       3
Ni    -0.09629275    3.54819327    0.07349896       4
Co    -3.71292175   -0.01480831    0.07050205       5
Co    -0.11562864   -3.50870237    0.08827249       6
Ni    -0.08532044    1.76904445    1.83240631       7
Co    -0.04773618    1.77802964   -1.72753462       8
Cr     1.65067025    1.74651564   -0.03655494       9
Ni    -0.11571414   -1.73265873    1.81278119      10
Co    -0.07633626   -1.73073811   -1.70515373      11
Cr     1.68218162   -1.72079455    0.03977735      12
Ni    -1.89525122    0.01145154   -1.68309016      13
Ni    -1.89430370    0.01207263    1.80046064      14
Ni    -1.87595785    1.78573984    0.06345605      15
Cr     1.75780960    0.00730683    1.79640465      16
Cr    -1.89280203   -1.79849553    0.03007116      17
Co     0.00000000    0.00000000    0.00000000      18
          18
Lattice="  24.8920   0.0000   0.0000   0.0000  24.8920   0.0000   0.0000   0.0000  24.8920 " ConfE="      -5942.6494" DelE="          0.2209"
Cr     0.02827567    0.01506478   -3.33792402       1
Co     3.33715157    0.05255536   -0.04876937       2
Ni    -0.09110622    0.03745450    3.60631159       3
Ni    -0.11012579    3.59085246    0.07446734       4
Co    -3.71159017   -0.01716785    0.06344000       5
Co    -0.12417158   -3.55021536    0.09110948       6
Ni    -0.07012917    1.75260115    1.78956696       7
Co    -0.06497382    1.86494797   -1.73059307       8
Cr     1.69264638    1.91918847    0.03930562       9
Ni    -0.10247628   -1.69723598    1.74540854      10
Co    -0.11453157   -1.83232698   -1.71640752      11
Cr     1.74817994   -1.92597854    0.10212729      12
Ni    -1.82835261    0.00872286   -1.64540894      13
Ni    -1.87424973    0.01157452    1.76202928      14
Ni    -1.85651884    1.79314672    0.05621936      15
Cr     1.75582703    0.00330331    1.79095595      16
Cr    -1.88907112   -1.80593830    0.01559361      17
Co     0.61292490   -0.02603132   -0.41456053      18
          18
Lattice="  24.8920   0.0000   0.0000   0.0000  24.8920   0.0000   0.0000   0.0000  24.8920 " ConfE="      -5943.2193" DelE="         -0.3490"
Cr    -0.09024682    0.00677500   -3.47165657       1
Co     3.49535810    0.05672860    0.00732009       2
Ni    -0.09988387    0.03886915    3.62481195       3
Ni    -0.10751880    3.57553072    0.07934054       4
Co    -3.72223093   -0.01539446    0.06700157       5
Co    -0.12286062   -3.53312921    0.09875801       6
Ni    -0.09307018    1.75361757    1.80980009       7
Co    -0.07829072    1.79144014   -1.69670293       8
Cr     1.61132261    1.74828270   -0.00061654       9
Ni    -0.11771885   -1.69357956    1.76142905      10
Co    -0.09904991   -1.72358126   -1.64112737      11
Cr     1.65809298   -1.70733171    0.04561504      12
Ni    -1.84631153    0.01604664   -1.65293571      13
Ni    -1.88958751    0.00867934    1.77380524      14
Ni    -1.86875335    1.78400832    0.06267903      15
Cr     1.72182184    0.01298802    1.73040146      16
Cr    -1.89684474   -1.80391769    0.01622886      17
Co     1.65840706    0.02609995   -1.65581888      18
