          18
Lattice="  24.8920   0.0000   0.0000   0.0000  24.8920   0.0000   0.0000   0.0000  24.8920 " ConfE="      -5936.9553" DelE="          0.0000"
Ni     0.04579199    0.01182494    3.53913102       1
Co    -3.49534652    0.00984557   -0.02222131       2
Cr    -0.00554593    3.49416407    0.05305202       3
Cr     3.67336125    0.03520066   -0.01505059       4
Co     0.05910382   -3.54813662   -0.00992596       5
Co     0.05902661    0.02455218   -3.53464846       6
Ni    -1.74629495    0.05672050    1.72320802       7
Ni     0.05686054    1.76393334   -1.73611330       8
Ni    -1.71512887    0.05067867   -1.73295848       9
Co     0.01200841    1.84815272    1.71436988      10
Ni     1.80816973    0.03440455    1.78370996      11
Ni     1.85142118    1.78150570    0.00680854      12
Ni     1.83215177   -1.73567024    0.01345557      13
Co     0.04478784   -1.78964299    1.75281674      14
Co    -1.71367206   -1.81212217   -0.02174836      15
Co     1.83654968   -0.01666485   -1.75805499      16
Cr     0.07071121   -1.72844051   -1.79042535      17
Cr     0.00000000    0.00000000    0.00000000      18
          18
Lattice="  24.8920   0.0000   0.0000   0.0000  24.8920   0.0000   0.0000   0.0000  24.8920 " ConfE="      -5936.0247" DelE="          0.9307"
Ni     0.05785189   -0.00205440    3.59292755       1
Co    -3.44247164    0.03385942   -0.00548798       2
Cr     0.00571739    3.50412554    0.01930737       3
Cr     3.64312626    0.04666283   -0.01596524       4
Co     0.04263243   -3.53925438   -0.01039951       5
Co     0.06913168    0.02825290   -3.63107845       6
Ni    -1.77900411   -0.01494626    1.90954996       7
Ni     0.09652446    1.75925290   -1.85564499       8
Ni    -1.73933303    0.04224391   -1.89667528       9
Co     0.09313672    1.85687269    1.87548359      10
Ni     1.76794511    0.03624402    1.76829359      11
Ni     1.77047213    1.76124778    0.00158799      12
Ni     1.77796263   -1.69170490    0.01590515      13
Co     0.02354556   -1.75135193    1.74359910      14
Co    -1.65046484   -1.67206991   -0.04213550      15
Co     1.78146774   -0.02504867   -1.75640755      16
Cr     0.03087791   -1.60378301   -1.71277146      17
Cr    -0.89575201    0.95099074    0.08288963      18
          18
Lattice="  24.8920   0.0000   0.0000   0.0000  24.8920   0.0000   0.0000   0.0000  24.8920 " ConfE="      -5937.1007" DelE="         -0.1454"
Ni     0.05407475    0.00393282    3.56846753       1
Co    -3.50692520    0.01053743   -0.00765214       2
Cr     0.11891484    3.58665608    0.03248568       3
Cr     3.65947612    0.03178171   -0.01721197       4
Co     0.05794300   -3.58154484   -0.01501074       5
Co     0.06488494    0.02516593   -3.57455313       6
Ni    -1.70921989    0.02322601    1.73120370       7
Ni     0.08258741    1.73788480   -1.73411244       8
Ni    -1.66233531    0.03116344   -1.71413370       9
Co     0.04658201    1.83735455    1.74212852      10
Ni     1.78529530    0.02417883    1.76944133      11
Ni     1.81760176    1.75915468    0.01012270      12
Ni     1.79172383   -1.72188588    0.01078740      13
Co     0.04002243   -1.79350887    1.74484469      14
Co    -1.67155446   -1.77135381   -0.03228500      15
Co     1.82132653   -0.04252325   -1.75471962      16
Cr     0.07611108   -1.72572772   -1.78123157      17
Cr    -1.66131818    1.82276817    0.08361710      18
