          18
Lattice="  24.8920   0.0000   0.0000   0.0000  24.8920   0.0000   0.0000   0.0000  24.8920 " ConfE="      -5945.7269" DelE="          0.0000"
Ni     0.00226582   -3.50287417    0.03612760       1
Cr     0.01302456    0.09506382   -3.54837448       2
Ni    -0.01828957    3.61830181    0.06072156       3
Co     0.01926397    0.02847125    3.58836191       4
Ni    -3.51912082    0.07603269    0.04438775       5
Ni     3.53032824    0.05086210    0.03258293       6
Cr    -1.64492776   -1.68362858    0.00286606       7
Cr     1.70497637   -1.74269613   -0.01755358       8
Cr    -1.70519510    0.03810734   -1.72285890       9
Ni     1.74308817    0.05359191   -1.74719136      10
Cr     0.04043412   -1.74622039    1.85001620      11
Ni     0.00594728    1.87934386   -1.72980165      12
Cr     0.01968045    1.81067106    1.89152924      13
Co    -1.71058295    0.05587341    1.81954684      14
Cr     1.76098433    0.03482303    1.81113713      15
Ni    -1.75637642    1.84321394    0.05675167      16
Cr     1.71529726    1.80483005    0.07443534      17
Co     0.00000000    0.00000000    0.00000000      18
          18
Lattice="  24.8920   0.0000   0.0000   0.0000  24.8920   0.0000   0.0000   0.0000  24.8920 " ConfE="      -5945.0921" DelE="          0.6348"
Ni    -0.01286951   -3.43906014    0.03248109       1
Cr     0.01907454    0.06557554   -3.50089912       2
Ni    -0.01451517    3.60566768    0.05167122       3
Co     0.00822129    0.02470634    3.60177099       4
Ni    -3.57234163    0.09690177    0.05575741       5
Ni     3.59401291    0.06802329    0.04009012       6
Cr    -1.92484914   -1.74120056    0.08227698       7
Cr     1.87096623   -1.72475445    0.04359662       8
Cr    -1.84472761    0.10647709   -1.75644555       9
Ni     1.85682879    0.09631681   -1.76731761      10
Cr     0.00164667   -1.69055585    1.78536262      11
Ni    -0.00069568    1.82207720   -1.71386539      12
Cr    -0.00541230    1.74244441    1.86213365      13
Co    -1.68823845    0.03247032    1.77398985      14
Cr     1.73105029    0.00608563    1.78707975      15
Ni    -1.75130397    1.80920618    0.04806142      16
Cr     1.62428400    1.66289116    0.08439539      17
Co    -0.05557216   -0.85437221   -0.78063863      18
          18
Lattice="  24.8920   0.0000   0.0000   0.0000  24.8920   0.0000   0.0000   0.0000  24.8920 " ConfE="      -5945.5906" DelE="          0.1363"
Ni     0.00641933   -3.52372824    0.06280747       1
Cr    -0.00556036    0.07429812   -3.57925335       2
Ni    -0.01158051    3.61238213    0.05574136       3
Co     0.01451845    0.03639108    3.61777952       4
Ni    -3.53654619    0.08111115    0.05366769       5
Ni     3.55562223    0.05967551    0.04796655       6
Cr    -1.61460119   -1.60739216    0.09216683       7
Cr     1.67375560   -1.62279332    0.08548298       8
Cr    -1.71483205    0.03907632   -1.71109645       9
Ni     1.75009901    0.06901530   -1.73273895      10
Cr     0.02856250   -1.73038879    1.84751643      11
Ni     0.00111701    1.83055107   -1.71879065      12
Cr     0.00784105    1.81230212    1.91383883      13
Co    -1.65613866    0.05157029    1.78526271      14
Cr     1.74246343    0.05087797    1.85225937      15
Ni    -1.72601463    1.80589183    0.05586576      16
Cr     1.61012774    1.66435308    0.11384694      17
Co    -0.03017646   -1.63949499   -1.63764544      18
