          18
Lattice="  24.8920   0.0000   0.0000   0.0000  24.8920   0.0000   0.0000   0.0000  24.8920 " ConfE="      -5942.2196" DelE="          0.0000"
Ni    -0.02000672    0.06828335    3.48611224       1
Ni     3.49799565    0.02348876   -0.07821859       2
Ni    -0.04504232    0.08086698   -3.61846133       3
Cr    -0.01909023   -3.50099170   -0.04587270       4
Co    -3.58769024   -0.00541920   -0.06899681       5
Co    -0.02308501    3.59118276   -0.07367071       6
Ni    -1.77092807    0.01896233    1.75648052       7
Ni    -1.76714394   -1.73205547   -0.00816558       8
Cr     1.74268143    0.04474062    1.71829349       9
Cr     1.74268398   -1.82379605   -0.07623839      10
Ni     1.71624482    0.03298469   -1.82635247      11
Co    -0.00473141    1.86896793    1.70987894      12
Co    -1.79497595    1.80971932   -0.06338971      13
Cr    -1.82188240    0.09643189   -1.79314095      14
Cr     1.74854987    1.82607498   -0.01192571      15
Cr    -0.07627161    1.81596533   -1.78890652      16
Co    -0.08252555   -1.75691339   -1.84500146      17
Ni     0.00000000    0.00000000    0.00000000      18
          18
Lattice="  24.8920   0.0000   0.0000   0.0000  24.8920   0.0000   0.0000   0.0000  24.8920 " ConfE="      -5941.5779" DelE="          0.6417"
Ni    -0.01888778    0.05476905    3.41935557       1
Ni     3.53115586    0.03936458   -0.08208468       2
Ni    -0.03751553    0.07946944   -3.61439427       3
Cr    -0.02285807   -3.48508497   -0.02423754       4
Co    -3.65183126    0.01727402   -0.09326947       5
Co    -0.02742976    3.61088392   -0.07290125       6
Ni    -1.89374877    0.07551541    1.72561240       7
Ni    -1.91903529   -1.73907095   -0.09340904       8
Cr     1.89484733    0.14427554    1.76368897       9
Cr     1.91406230   -1.89891149   -0.18206012      10
Ni     1.68940544    0.03291382   -1.76664550      11
Co     0.01248569    1.81574612    1.65212645      12
Co    -1.77233233    1.77693278   -0.07294975      13
Cr    -1.77026107    0.11942639   -1.74141351      14
Cr     1.69830363    1.78893324    0.01634304      15
Cr    -0.06227630    1.76023206   -1.72309569      16
Co    -0.08243863   -1.72459838   -1.77098434      17
Ni     0.05664879   -0.98680345    0.92868546      18
          18
Lattice="  24.8920   0.0000   0.0000   0.0000  24.8920   0.0000   0.0000   0.0000  24.8920 " ConfE="      -5942.1041" DelE="          0.1156"
Ni    -0.02054161    0.08652196    3.51334149       1
Ni     3.51283830    0.03589171   -0.08297433       2
Ni    -0.04050183    0.08471641   -3.63568366       3
Cr    -0.02867988   -3.54648945   -0.07975074       4
Co    -3.62032943    0.00961602   -0.07779240       5
Co    -0.02670063    3.61700514   -0.07061737       6
Ni    -1.77059502    0.05724586    1.71764247       7
Ni    -1.77692770   -1.68562777   -0.04879043       8
Cr     1.71463578    0.08244350    1.66340425       9
Cr     1.76391023   -1.79009904   -0.10626307      10
Ni     1.66792701    0.04292422   -1.77534713      11
Co     0.02345142    1.80678106    1.65385663      12
Co    -1.75721592    1.78204541   -0.08617802      13
Cr    -1.78795922    0.11945420   -1.77932950      14
Cr     1.68962813    1.79766577   -0.00461674      15
Cr    -0.08276392    1.78782960   -1.75705141      16
Co    -0.08125828   -1.72463182   -1.79752491      17
Ni     0.01001831   -1.69541971    1.67042147      18
