          18
Lattice="  24.8920   0.0000   0.0000   0.0000  24.8920   0.0000   0.0000   0.0000  24.8920 " ConfE="      -5934.6642" DelE="          0.0000"
Ni    -3.48654716    0.00602304   -0.01538532       1
Ni     0.02916850    3.53511021   -0.04996725       2
Ni     3.59480939   -0.01357268   -0.05055704       3
Cr    -0.00141291   -0.02187302    3.49006376       4
Co     0.01770396   -3.55057190   -0.11333667       5
Cr     0.03389369   -0.00749908   -3.65430497       6
Cr    -1.66731657   -1.69457712   -0.01166903       7
Cr     0.01730781   -1.72483576    1.71314045       8
Co    -1.70526159    1.72920374    0.06763451       9
Ni     0.05469817    1.76500220   -1.83583606      10
Ni     1.82670872    0.00233844   -1.82681518      11
Cr    -0.01683360    1.68293391    1.73765548      12
Cr    -1.72954505    0.09243235   -1.84728199      13
Cr     0.00373306   -1.73427015   -1.81822148      14
Co     1.76202431   -1.76502475   -0.05897576      15
Co     1.82583048   -0.02526563    1.73779899      16
Cr     1.80811565    1.79009968   -0.01272073      17
Co     0.00000000    0.00000000    0.00000000      18
          18
Lattice="  24.8920   0.0000   0.0000   0.0000  24.8920   0.0000   0.0000   0.0000  24.8920 " ConfE="      -5934.1075" DelE="          0.5566"
Ni    -3.47494566   -0.00616940   -0.02217230       1
Ni     0.05595198    3.60255542   -0.06715680       2
Ni     3.59117561   -0.00675985   -0.03886488       3
Cr    -0.00840746   -0.02763502    3.50450241       4
Co     0.04157049   -3.63353352   -0.13516201       5
Cr     0.02072534   -0.00484327   -3.65405851       6
Cr    -1.68417282   -1.86051821   -0.08686430       7
Cr     0.13725860   -1.95146108    1.64375646       8
Co    -1.70765742    1.87100551   -0.05484340       9
Ni     0.06548087    1.74964394   -1.79221408      10
Ni     1.81072441    0.00997991   -1.80531511      11
Cr     0.05860666    1.88927523    1.74652766      12
Cr    -1.63897655    0.04253307   -1.71550251      13
Cr     0.04130182   -1.71329026   -1.72943614      14
Co     1.71315921   -1.72882454   -0.05770553      15
Co     1.68121977   -0.00877139    1.68931967      16
Cr     1.76909711    1.77023547    0.00021592      17
Co    -1.02477167   -0.04191203    1.12680412      18
          18
Lattice="  24.8920   0.0000   0.0000   0.0000  24.8920   0.0000   0.0000   0.0000  24.8920 " ConfE="      -5934.5673" DelE="          0.0969"
Ni    -3.52969248    0.00745499   -0.03939640       1
Ni     0.04657303    3.55557731   -0.05772799       2
Ni     3.61548170   -0.01252735   -0.05151120       3
Cr     0.07283699   -0.00777087    3.55217826       4
Co     0.02271261   -3.57797589   -0.12199460       5
Cr     0.03694000   -0.00484693   -3.67335150       6
Cr    -1.64806426   -1.68353900   -0.03407476       7
Cr     0.07587483   -1.72674099    1.65345195       8
Co    -1.64308071    1.70549774   -0.01117191       9
Ni     0.07832009    1.74361062   -1.81835450      10
Ni     1.82037576    0.00794731   -1.81266163      11
Cr     0.07805351    1.66982672    1.69401712      12
Cr    -1.67649399    0.07185102   -1.77574374      13
Cr     0.02946454   -1.69555747   -1.75322676      14
Co     1.71442214   -1.72349394   -0.05712402      15
Co     1.77926465   -0.01745914    1.69791481      16
Cr     1.81049221    1.77984908   -0.02074530      17
Co    -1.67310203   -0.01027413    1.71385085      18
