          18
Lattice="  24.8920   0.0000   0.0000   0.0000  24.8920   0.0000   0.0000   0.0000  24.8920 " ConfE="      -5950.3476" DelE="          0.0000"
Co    -0.03583460   -3.40418713   -0.03891364       1
Ni    -0.03747123    0.07034247    3.40768417       2
Co     0.00542861    3.63251318   -0.07515678       3
Ni    -0.00318103    0.10059647   -3.67037381       4
Co    -3.58522596    0.09631053   -0.09471058       5
Ni     3.54068938    0.10333679   -0.10701667       6
Ni    -1.77780599   -1.68168334   -0.07687694       7
Co     1.68811668   -1.58782011   -0.11332770       8
Cr    -1.81132849    0.02030627    1.67664556       9
Ni     1.73528678    0.06570720    1.68254395      10
Ni    -0.02495876   -1.68541948   -1.89816874      11
Ni    -0.03940839    1.85876025    1.68026726      12
Ni     0.00554752    1.83255156   -1.85293483      13
Ni    -1.77225529    0.08580273   -1.86179577      14
Cr     1.74815070    0.03535116   -1.85305393      15
Ni    -1.79135126    1.82516246   -0.08570958      16
Cr     1.75505026    1.81534776   -0.08604173      17
Cr     0.00000000    0.00000000    0.00000000      18
          18
Lattice="  24.8920   0.0000   0.0000   0.0000  24.8920   0.0000   0.0000   0.0000  24.8920 " ConfE="      -5949.9618" DelE="          0.3858"
Co    -0.03357670   -3.37702346   -0.03028169       1
Ni    -0.02344554    0.06162467    3.39139827       2
Co     0.00588838    3.62158849   -0.06974465       3
Ni    -0.00999994    0.09543271   -3.66694713       4
Co    -3.65717384    0.10925156   -0.12052698       5
Ni     3.59620201    0.10765814   -0.10763190       6
Ni    -1.89375887   -1.71809324   -0.13716699       7
Co     1.81135174   -1.62169349   -0.12119301       8
Cr    -1.92673629    0.05625117    1.67457378       9
Ni     1.90834289    0.10501100    1.73496632      10
Ni    -0.02084477   -1.64802363   -1.81813476      11
Ni    -0.02389739    1.76969985    1.64433215      12
Ni    -0.00425130    1.80805118   -1.83141782      13
Ni    -1.77837645    0.07948388   -1.83678282      14
Cr     1.68319139    0.04575332   -1.74297215      15
Ni    -1.79021476    1.78719333   -0.07695063      16
Cr     1.69546002    1.69585815   -0.09170585      17
Cr    -0.00886165   -0.80612678    0.85868979      18
          18
Lattice="  24.8920   0.0000   0.0000   0.0000  24.8920   0.0000   0.0000   0.0000  24.8920 " ConfE="      -5950.7613" DelE="         -0.4137"
Co    -0.03289502   -3.43587768   -0.05821734       1
Ni    -0.03515950    0.11275677    3.46609121       2
Co     0.00289548    3.65442313   -0.07904057       3
Ni    -0.00287892    0.10529571   -3.68819433       4
Co    -3.62445439    0.10948121   -0.10989825       5
Ni     3.56043605    0.10947474   -0.11386425       6
Ni    -1.76884534   -1.64615094   -0.10385341       7
Co     1.66767902   -1.54871804   -0.12829577       8
Cr    -1.81734096    0.06320086    1.64315453       9
Ni     1.71522429    0.10001743    1.64137147      10
Ni    -0.02273228   -1.65565928   -1.87146692      11
Ni    -0.03964571    1.81903491    1.64131810      12
Ni     0.01082926    1.82318673   -1.84814781      13
Ni    -1.76630727    0.09831282   -1.85850550      14
Cr     1.72952715    0.04577527   -1.82236667      15
Ni    -1.78738237    1.81669481   -0.09226581      16
Cr     1.74547195    1.80514954   -0.12926705      17
Cr    -0.08269077   -1.60931892    1.69248778      18
