          18
Lattice="  24.8920   0.0000   0.0000   0.0000  24.8920   0.0000   0.0000   0.0000  24.8920 " ConfE="      -5938.1062" DelE="          0.0000"
Ni    -3.46149439    0.01192642   -0.02069882       1
Ni    -0.01160412    3.46466561   -0.00233278       2
Ni     0.04263619   -0.02069799    3.57897774       3
Ni     3.57166674   -0.01239896    0.01166694       4
Ni     0.02953437   -0.00070050   -3.58246073       5
Cr     0.08461628   -3.54589484    0.01495520       6
Ni    -1.75432461    0.01042568   -1.79351559       7
Ni     0.00700806    1.72027821   -1.78262907       8
Ni     0.03944415   -1.77365813    1.79004727       9
Ni     0.04421510   -1.79844983   -1.79044060      10
Co    -1.74563233    0.04964336    1.76433290      11
Cr    -0.12036594    1.73599907    1.75641134      12
Ni     1.77781901    1.74336482   -0.01063105      13
Ni     1.79721896    0.00528535    1.78397539      14
Co    -1.72855216   -1.83918505   -0.03372347      15
Cr     1.81739777   -1.77609500   -0.00365580      16
Co     1.82575480   -0.06206684   -1.78325194      17
Ni     0.00000000    0.00000000    0.00000000      18
          18
Lattice="  24.8920   0.0000   0.0000   0.0000  24.8920   0.0000   0.0000   0.0000  24.8920 " ConfE="      -5937.4842" DelE="          0.6219"
Ni    -3.39339195    0.01431101   -0.02109925       1
Ni    -0.01753299    3.41631087   -0.00929861       2
Ni     0.05837115   -0.04043401    3.61791499       3
Ni     3.57233904   -0.00599129    0.01762316       4
Ni     0.04389341   -0.01872405   -3.63619283       5
Cr     0.08250065   -3.56599394    0.02089564       6
Ni    -1.75066069   -0.01017441   -1.90293647       7
Ni     0.09436819    1.74397233   -1.96382935       8
Ni     0.04265609   -1.76276634    1.79418383       9
Ni     0.04098415   -1.79033704   -1.79512023      10
Co    -1.78743606   -0.01984964    1.91816705      11
Cr    -0.02522485    1.81047884    1.96723829      12
Ni     1.73483211    1.71699575   -0.00674679      13
Ni     1.77352397    0.00959363    1.78126794      14
Co    -1.66086425   -1.78047171   -0.01441422      15
Cr     1.73924902   -1.71012534   -0.00802091      16
Co     1.80134462   -0.07184280   -1.75012742      17
Ni    -0.63635283    0.78043223    0.03911307      18
          18
Lattice="  24.8920   0.0000   0.0000   0.0000  24.8920   0.0000   0.0000   0.0000  24.8920 " ConfE="      -5938.0469" DelE="          0.0592"
Ni    -3.49981414   -0.02484546   -0.02043669       1
Ni     0.03503695    3.51243379    0.00471784       2
Ni     0.06062359   -0.03318236    3.59528126       3
Ni     3.59383769   -0.00964492    0.01623892       4
Ni     0.03507954   -0.01135701   -3.59304074       5
Cr     0.08328589   -3.56325345    0.01807907       6
Ni    -1.73379060   -0.02302816   -1.79671033       7
Ni     0.04904983    1.67905009   -1.77841159       8
Ni     0.05580879   -1.75310932    1.75301073       9
Ni     0.04716853   -1.79189073   -1.76573511      10
Co    -1.70604666    0.01857284    1.77666844      11
Cr    -0.03630767    1.71504325    1.79496261      12
Ni     1.73628648    1.70746864    0.00267478      13
Ni     1.79312338   -0.00566360    1.76673188      14
Co    -1.69043988   -1.79308905   -0.02519463      15
Cr     1.79789764   -1.75158870   -0.01815923      16
Co     1.81970127   -0.08897603   -1.74099033      17
Ni    -1.68683904    1.69741362   -0.01023955      18
