          18
Lattice="  24.8920   0.0000   0.0000   0.0000  24.8920   0.0000   0.0000   0.0000  24.8920 " ConfE="      -5924.2834" DelE="          0.0000"
Ni    -0.05461367    3.49884385   -0.02741649       1
Ni    -3.47174806   -0.02231148    0.00441773       2
Ni     3.51333853   -0.01239303   -0.01348864       3
Ni    -0.00384402   -3.59874907    0.00367122       4
Co    -0.02231264   -0.02755097   -3.57951303       5
Co     0.03154643   -0.01144328    3.55180028       6
Ni    -0.03404665    1.74239361    1.75082996       7
Ni    -1.75029643   -0.04432107   -1.74436941       8
Co    -0.01004040    1.68147369   -1.73851854       9
Cr    -1.71108685   -0.09760250    1.80454088      10
Ni     1.77333365    1.77031270    0.00995861      11
Cr    -1.71325666   -1.83248924    0.02883323      12
Cr     1.72902895    0.01260467   -1.83038443      13
Co     0.02210524   -1.80610328    1.78549317      14
Cr     1.73778653   -0.05494996    1.82507294      15
Cr     0.06564929   -1.78717803   -1.77681859      16
Co     1.74307917   -1.77525479    0.02540613      17
Cr     0.00000000    0.00000000    0.00000000      18
          18
Lattice="  24.8920   0.0000   0.0000   0.0000  24.8920   0.0000   0.0000   0.0000  24.8920 " ConfE="      -5919.6925" DelE="          4.5909"
Ni    -0.05552335    3.57742651   -0.05692878       1
Ni    -3.52060154   -0.03949092    0.00935880       2
Ni     3.69776770   -0.00200011   -0.16370181       3
Ni    -0.02507340   -3.70423740   -0.08431226       4
Co    -0.01214759   -0.02025968   -3.60261009       5
Co    -0.16693515    0.05550651    3.95338543       6
Ni    -0.03189619    1.74443649    1.67627222       7
Ni    -1.67585689   -0.03377330   -1.64517907       8
Co     0.04273044    1.68263545   -1.76300179       9
Cr    -1.75084934   -0.11883834    1.80335959      10
Ni     1.81724580    2.02888796   -0.15813155      11
Cr    -1.72172983   -1.82979936    0.01215843      12
Cr     1.69685640    0.04995112   -1.77024087      13
Co    -0.19902212   -2.21043109    1.71968439      14
Cr     0.90558706   -0.47888559    2.18280013      15
Cr     0.08388993   -1.72945859   -1.72550755      16
Co     1.66929366   -1.77615622    0.02849367      17
Cr     1.94047130    0.28827940    1.19178258      18
          18
Lattice="  24.8920   0.0000   0.0000   0.0000  24.8920   0.0000   0.0000   0.0000  24.8920 " ConfE="      -5924.2834" DelE="          0.0000"
Ni    -0.05483465    3.49834742   -0.02742179       1
Ni    -3.47189961   -0.02191936    0.00432235       2
Ni     3.51348485   -0.01225045   -0.01375218       3
Ni    -0.00400908   -3.59843827    0.00385344       4
Co    -0.02237729   -0.02769944   -3.58016391       5
Co     0.03151220   -0.01125247    3.55186492       6
Ni    -0.03365480    1.74254109    1.75124692       7
Ni    -1.75043145   -0.04428191   -1.74457013       8
Co    -0.01007149    1.68152459   -1.73896262       9
Cr    -1.71135103   -0.09694697    1.80476652      10
Ni     1.77340078    1.77034364    0.00983915      11
Cr    -1.71344395   -1.83171084    0.02949388      12
Cr     1.72871083    0.01266239   -1.83043818      13
Co     0.02188361   -1.80615102    1.78564143      14
Cr    -0.00009206    0.00011419    0.00038185      15
Cr     0.06519354   -1.78675050   -1.77675396      16
Co     1.74312783   -1.77496111    0.02562421      17
Cr     1.73855385   -0.05457489    1.82526066      18
