          18
Lattice="  24.8920   0.0000   0.0000   0.0000  24.8920   0.0000   0.0000   0.0000  24.8920 " ConfE="      -5946.6429" DelE="          0.0000"
Ni    -0.03882945    3.52411029    0.02645158       1
Co     3.50663530    0.04432966    0.07605493       2
Cr    -0.01748030   -3.55332145    0.02485447       3
Co    -3.58953359   -0.02452670    0.05284750       4
Cr    -0.01739861   -0.06994977   -3.55583517       5
Co    -0.01935402   -0.01558788    3.62334314       6
Ni    -0.03190456    1.75266698   -1.74133304       7
Ni    -0.00377300    1.76645496    1.78666756       8
Cr     1.77376628    0.09412318   -1.63127535       9
Cr     1.74253922    0.07246512    1.72708704      10
Ni    -1.83175570    1.75924309    0.00143588      11
Ni     1.74877363   -1.80860705    0.04779264      12
Ni    -1.79490830   -1.76525317    0.06216746      13
Cr    -1.81805240   -0.08455625   -1.74822664      14
Cr    -1.80107622    0.09724781    1.83571571      15
Cr     0.02322338   -1.75725743   -1.77306505      16
Ni    -0.03716682   -1.75663794    1.81623963      17
Co     0.00000000    0.00000000    0.00000000      18
          18
Lattice="  24.8920   0.0000   0.0000   0.0000  24.8920   0.0000   0.0000   0.0000  24.8920 " ConfE="      -5946.0134" DelE="          0.6295"
Ni    -0.02968091    3.50169897    0.03273493       1
Co     3.48921473    0.04448834    0.07718989       2
Cr    -0.00753567   -3.55578525    0.02922376       3
Co    -3.58872971   -0.01576638    0.05563774       4
Cr    -0.03673042   -0.08162581   -3.64832023       5
Co    -0.05317280   -0.02061859    3.69069009       6
Ni    -0.06479876    1.76994501   -1.84488429       7
Ni    -0.05045449    1.79758074    1.91396202       8
Cr     1.77613551   -0.01950955   -1.87508096       9
Cr     1.72512885   -0.01498871    1.99434120      10
Ni    -1.77015523    1.72857989    0.00629676      11
Ni     1.72482921   -1.73693767    0.05463221      12
Ni    -1.74691429   -1.70866485    0.06552407      13
Cr    -1.77100283   -0.05795273   -1.72442081      14
Cr    -1.76736896    0.10674895    1.81776434      15
Cr     0.01951902   -1.69672765   -1.73632485      16
Ni    -0.03350126   -1.72262298    1.81300642      17
Co     0.95135999    0.73275666    0.03422498      18
          18
Lattice="  24.8920   0.0000   0.0000   0.0000  24.8920   0.0000   0.0000   0.0000  24.8920 " ConfE="      -5946.7238" DelE="         -0.0808"
Ni    -0.06070796    3.54501673    0.03641681       1
Co     3.56937124   -0.00777988    0.06445572       2
Cr    -0.01737242   -3.57578149    0.02698393       3
Co    -3.59836124   -0.02485898    0.05143123       4
Cr    -0.01796508   -0.08125800   -3.60487343       5
Co    -0.02966885   -0.01887361    3.65212309       6
Ni    -0.04272417    1.70432120   -1.72620480       7
Ni    -0.03246886    1.75073204    1.80949218       8
Cr     1.72166657    0.01867423   -1.67023386       9
Cr     1.70545569    0.02826882    1.75770962      10
Ni    -1.79158748    1.71926971    0.01113108      11
Ni     1.71951677   -1.76339733    0.04830114      12
Ni    -1.76119597   -1.73150114    0.06448864      13
Cr    -1.77905713   -0.09273381   -1.72647674      14
Cr    -1.79371879    0.08678177    1.82743515      15
Cr     0.01438983   -1.73805215   -1.75729194      16
Ni    -0.03894313   -1.73063551    1.80538619      17
Co     1.72564732    1.71195302    0.04183584      18
