          18
Lattice="  24.8920   0.0000   0.0000   0.0000  24.8920   0.0000   0.0000   0.0000  24.8920 " ConfE="      -5934.0671" DelE="          0.0000"
Ni    -0.01327461    0.03331002   -3.48154375       1
Co     3.52354977    0.02801334    0.03562633       2
Co    -3.60726136    0.01763457    0.03876432       3
Cr    -0.02135610   -0.00118364    3.56555942       4
Cr    -0.04770144    3.57134860    0.04772549       5
Cr    -0.00869344   -3.53245925    0.02016945       6
Cr     1.78651185    1.70716793    0.03665059       7
Cr     1.86344607   -1.64989130    0.04118150       8
Cr    -0.00828782    1.75321394   -1.69346035       9
Co     0.03749678   -1.78252210   -1.67877176      10
Ni    -1.83191058    1.78918419    0.02034882      11
Co     1.75002823    0.01504000    1.82776803      12
Cr    -1.81779833   -0.02501818   -1.72135450      13
Co    -1.81047806   -0.00277857    1.79313159      14
Cr    -1.91040496   -1.74657725    0.01646541      15
Cr    -0.03335548    1.80492534    1.77487194      16
Cr    -0.06579869   -1.76570458    1.75259405      17
Ni     0.00000000    0.00000000    0.00000000      18
          18
Lattice="  24.8920   0.0000   0.0000   0.0000  24.8920   0.0000   0.0000   0.0000  24.8920 " ConfE="      -5933.2270" DelE="          0.8400"
Ni    -0.03823545    0.04405020   -3.48503198       1
Co     3.54093216    0.02357007    0.03585007       2
Co    -3.62374593    0.02028722    0.02666622       3
Cr    -0.00805279   -0.00367204    3.56377971       4
Cr    -0.06249563    3.63075657    0.11798044       5
Cr    -0.02939552   -3.61134134    0.04789190       6
Cr     1.83349742    1.86973050    0.12818510       7
Cr     1.84757820   -1.79220943    0.08608695       8
Cr    -0.15984100    1.97053072   -1.68645437       9
Co    -0.03215844   -1.94240134   -1.66036306      10
Ni    -1.83302642    1.78116003    0.02495952      11
Co     1.75036914    0.01396786    1.76411892      12
Cr    -1.70903515   -0.02891349   -1.66677357      13
Co    -1.79413592   -0.01651228    1.74646174      14
Cr    -1.88837357   -1.73338851   -0.00404451      15
Cr    -0.02419671    1.66715711    1.65513911      16
Cr    -0.05369967   -1.63762363    1.62509558      17
Ni     1.11658241    0.08400070   -1.23986265      18
          18
Lattice="  24.8920   0.0000   0.0000   0.0000  24.8920   0.0000   0.0000   0.0000  24.8920 " ConfE="      -5933.7101" DelE="          0.3569"
Ni    -0.03162405    0.03247368   -3.51719340       1
Co     3.58794910    0.01441809    0.06052616       2
Co    -3.63646116    0.01637979    0.04067474       3
Cr    -0.02688050    0.00197711    3.57828250       4
Cr    -0.06869342    3.61160426    0.05838879       5
Cr    -0.01574440   -3.57604045    0.03483907       6
Cr     1.77564915    1.72069528    0.08241348       7
Cr     1.80142673   -1.69028799    0.09658833       8
Cr    -0.04614143    1.68362045   -1.54781778       9
Co    -0.01775707   -1.74773531   -1.62417553      10
Ni    -1.85393530    1.77971525    0.02979252      11
Co     1.71706771    0.01658465    1.75536919      12
Cr    -1.75914441   -0.03250128   -1.66826196      13
Co    -1.78707148   -0.01492531    1.75569639      14
Cr    -1.90546108   -1.73668681    0.02745448      15
Cr    -0.04830169    1.72582170    1.68014285      16
Cr    -0.08072472   -1.68885809    1.68718677      17
Ni     1.72418049    0.00619482   -1.71255563      18
