          18
Lattice="  24.8920   0.0000   0.0000   0.0000  24.8920   0.0000   0.0000   0.0000  24.8920 " ConfE="      -5936.9537" DelE="          0.0000"
Ni    -0.06461550   -3.51692620    0.03144692       1
Co     3.41487305   -0.07569927    0.06596448       2
Co    -0.06107251    3.56370078    0.08282700       3
Cr    -3.58017751    0.01139541    0.06300038       4
Cr    -0.08110093    0.10012568   -3.49060371       5
Ni    -0.05810711    0.01934322    3.59103071       6
Ni    -0.04664989   -1.76582682   -1.73591822       7
Ni    -0.05004211   -1.74405449    1.80364295       8
Cr     1.64301363    0.02788523   -1.68348645       9
Co     1.71689943   -0.02086661    1.76254535      10
Ni    -1.86775899   -1.74243430    0.05209926      11
Cr     1.66777823    1.68118308    0.10418441      12
Co    -1.83193846    1.78843811    0.06679114      13
Co    -1.80036537    0.02507640   -1.75123385      14
Ni    -1.83993063    0.02411060    1.80802784      15
Ni    -0.08418917    1.81512336   -1.69504538      16
Co    -0.05355972    1.79151416    1.78975069      17
Co     0.00000000    0.00000000    0.00000000      18
          18
Lattice="  24.8920   0.0000   0.0000   0.0000  24.8920   0.0000   0.0000   0.0000  24.8920 " ConfE="      -5936.4989" DelE="          0.4548"
Ni    -0.06251901   -3.49539639    0.02061776       1
Co     3.40134778   -0.06654752    0.07687297       2
Co    -0.05164668    3.54707917    0.08728837       3
Cr    -3.59762489   -0.00370629    0.07242574       4
Cr    -0.10884441    0.09876798   -3.55495418       5
Ni    -0.07999115    0.02254072    3.64023976       6
Ni    -0.09422767   -1.79602039   -1.85846989       7
Ni    -0.08567374   -1.75038736    1.88178825       8
Cr     1.72932697    0.06130299   -1.90986532       9
Co     1.78146846   -0.03254462    2.00974826      10
Ni    -1.80353166   -1.69949874    0.03999437      11
Cr     1.66565369    1.62310620    0.11434386      12
Co    -1.80155762    1.75238072    0.06630075      13
Co    -1.78329079    0.01895099   -1.74716559      14
Ni    -1.82109313    0.02123844    1.80297357      15
Ni    -0.04042141    1.72676370   -1.65371770      16
Co    -0.00560474    1.72684373    1.75231075      17
Co     0.92525665   -0.71234806   -0.02889303      18
          18
Lattice="  24.8920   0.0000   0.0000   0.0000  24.8920   0.0000   0.0000   0.0000  24.8920 " ConfE="      -5937.0473" DelE="         -0.0936"
Ni    -0.07211775   -3.53425626    0.03428473       1
Co     3.51198461   -0.00736397    0.06531493       2
Co    -0.05484421    3.57986968    0.07459831       3
Cr    -3.61894101    0.00578716    0.07603370       4
Cr    -0.08996028    0.10365507   -3.53169048       5
Ni    -0.06609770    0.03281340    3.60711310       6
Ni    -0.05104075   -1.71484949   -1.71828170       7
Ni    -0.06705991   -1.71317064    1.80537236       8
Cr     1.66134623    0.04611440   -1.69069971       9
Co     1.68304030    0.04324959    1.75270161      10
Ni    -1.82400039   -1.69742668    0.05424365      11
Cr     1.65359274    1.63004539    0.10040245      12
Co    -1.82700866    1.78455442    0.06608725      13
Co    -1.79342728    0.03559167   -1.72445314      14
Ni    -1.83588952    0.04064617    1.79617871      15
Ni    -0.06301973    1.75640295   -1.65124505      16
Co    -0.05270675    1.78346004    1.75297338      17
Co     1.72907872   -1.69163841    0.06547722      18
