          18
Lattice="  24.8920   0.0000   0.0000   0.0000  24.8920   0.0000   0.0000   0.0000  24.8920 " ConfE="      -5950.6497" DelE="          0.0000"
Ni     3.49960193    0.01909002    0.01506943       1
Ni    -0.00407806    3.56072701    0.00161823       2
Co    -0.00744302    0.04368079   -3.48698583       3
Co     0.00179226   -3.49062253    0.00905690       4
Co    -0.01635556    0.04141225    3.59870365       5
Cr    -3.53624666    0.04204459    0.05899942       6
Ni     1.75800810    1.76433464   -0.02254578       7
Co     1.70660752   -1.68222222   -0.03463529       8
Cr     0.03266723   -1.69560554   -1.71372170       9
Cr     0.02978006    1.70944110   -1.80683761      10
Co     1.74401465    0.04341817    1.82600019      11
Co    -0.03254933   -1.69065746    1.77005149      12
Co    -1.79885152   -1.73931102    0.00373647      13
Cr    -1.74998086   -0.00494266    1.81398832      14
Co    -1.81281855    0.04335317   -1.74525659      15
Cr     0.00100794    1.78195162    1.83589511      16
Co    -1.76381314    1.80297948    0.03302083      17
Cr     0.00000000    0.00000000    0.00000000      18
          18
Lattice="  24.8920   0.0000   0.0000   0.0000  24.8920   0.0000   0.0000   0.0000  24.8920 " ConfE="      -5949.8681" DelE="          0.7815"
Ni     3.46431590    0.02125697   -0.00035635       1
Ni    -0.00901800    3.62351184    0.02405814       2
Co    -0.01970102    0.04603132   -3.49324205       3
Co    -0.01051957   -3.54575531    0.01678582       4
Co    -0.01079431    0.03612563    3.60838750       5
Cr    -3.51538740    0.04185105    0.04210605       6
Ni     1.78787370    1.89165216    0.02507636       7
Co     1.73276078   -1.79403112    0.03262538       8
Cr    -0.10892753   -1.89323609   -1.75434127       9
Cr    -0.06902729    1.94104722   -1.82753976      10
Co     1.67967618    0.05908558    1.73058467      11
Co    -0.03658129   -1.65991746    1.72601085      12
Co    -1.74380325   -1.70273630   -0.01488737      13
Cr    -1.68245573   -0.02415259    1.74173614      14
Co    -1.71274668    0.04945948   -1.72490077      15
Cr     0.01716433    1.71582361    1.75423040      16
Co    -1.70026638    1.78008322    0.02962059      17
Cr     0.89444724    0.00021687   -1.01352701      18
          18
Lattice="  24.8920   0.0000   0.0000   0.0000  24.8920   0.0000   0.0000   0.0000  24.8920 " ConfE="      -5950.3733" DelE="          0.2764"
Ni     3.52090167    0.02312625    0.03058807       1
Ni    -0.01684428    3.59518330    0.01694409       2
Co    -0.05264376    0.01180102   -3.57814022       3
Co    -0.00116411   -3.53357932    0.02337435       4
Co    -0.01611279    0.03863864    3.63164299       5
Cr    -3.53654244    0.04145198    0.06530131       6
Ni     1.70977500    1.76843890    0.00630124       7
Co     1.68372002   -1.68484669   -0.01134311       8
Cr    -0.01756306   -1.70178800   -1.65446016       9
Cr    -0.05237858    1.72724299   -1.76462764      10
Co     1.70292689    0.05212995    1.78755540      11
Co    -0.04080497   -1.65536634    1.74752460      12
Co    -1.76858298   -1.71723180    0.00887375      13
Cr    -1.68120694   -0.02373087    1.75338052      14
Co    -1.71469340    0.03953064   -1.70672766      15
Cr    -0.00092106    1.73451554    1.80546297      16
Co    -1.73105365    1.78386399    0.05249513      17
Cr     1.69104498    0.00505540   -1.73518784      18
