          18
Lattice="  24.8920   0.0000   0.0000   0.0000  24.8920   0.0000   0.0000   0.0000  24.8920 " ConfE="      -5923.6430" DelE="          0.0000"
Co    -0.00050805   -3.44424005   -0.02303782       1
Ni    -3.45632053   -0.00436950   -0.01698103       2
Co     0.01513782    3.56169166   -0.02304103       3
Ni     3.59448840    0.02530561   -0.00943026       4
Co     0.06846284    0.02271660   -3.58256190       5
Ni     0.05282594    0.04169277    3.56276288       6
Co     0.03888185   -1.71587073   -1.77843650       7
Co     0.02558625   -1.73221012    1.76821039       8
Co    -1.68430643   -0.02129657   -1.76789552       9
Cr    -1.63786609   -0.11624777    1.69081728      10
Co     1.83612778   -1.74773777   -0.03039185      11
Cr    -1.68774870    1.75323197   -0.01703460      12
Ni     1.81314002    1.79657739    0.00432519      13
Cr     1.77024227   -0.03293254   -1.72036032      14
Co     1.80316012    0.04232211    1.76293572      15
Cr     0.05657056    1.74958366   -1.72520327      16
Ni     0.02845853    1.79200946    1.75944981      17
Co     0.00000000    0.00000000    0.00000000      18
          18
Lattice="  24.8920   0.0000   0.0000   0.0000  24.8920   0.0000   0.0000   0.0000  24.8920 " ConfE="      -5923.0008" DelE="          0.6422"
Co     0.02343671   -3.39241479   -0.04729190       1
Ni    -3.45009246   -0.02540059   -0.02143345       2
Co     0.01214443    3.54153037   -0.01882438       3
Ni     3.61471235    0.02072532   -0.00705666       4
Co     0.08314433    0.03460817   -3.65134918       5
Ni     0.06709584    0.04273062    3.61091391       6
Co     0.12426813   -1.72385463   -1.93676637       7
Co     0.11187444   -1.75033421    1.91329324       8
Co    -1.73366271   -0.02502414   -1.96816008       9
Cr    -1.68588520   -0.10345490    1.84565854      10
Co     1.77052206   -1.67846281   -0.03119908      11
Cr    -1.65782009    1.63311688   -0.02643573      12
Ni     1.77856520    1.74005207   -0.00053184      13
Cr     1.73852287   -0.04199028   -1.69079653      14
Co     1.80255202    0.03547835    1.77248070      15
Cr     0.03187780    1.66922758   -1.70299496      16
Ni     0.00924931    1.70918230    1.72751402      17
Co    -0.79904780   -0.83064679   -0.00598248      18
          18
Lattice="  24.8920   0.0000   0.0000   0.0000  24.8920   0.0000   0.0000   0.0000  24.8920 " ConfE="      -5923.7118" DelE="         -0.0688"
Co     0.05447208   -3.48797618   -0.02495247       1
Ni    -3.52251248    0.02620209   -0.01898246       2
Co     0.02011990    3.57014543   -0.02158299       3
Ni     3.61578299    0.02295252   -0.00962523       4
Co     0.07389548    0.02473744   -3.60091354       5
Ni     0.05830506    0.04355322    3.58041580       6
Co     0.08600949   -1.67615894   -1.76893531       7
Co     0.05258443   -1.69551441    1.75268660       8
Co    -1.61563013    0.05010785   -1.72471172       9
Cr    -1.62588670   -0.08658297    1.69472346      10
Co     1.80684100   -1.70923076   -0.03434147      11
Cr    -1.66504530    1.68471903   -0.02334614      12
Ni     1.78741187    1.75461254   -0.00965329      13
Cr     1.75588826   -0.03594139   -1.69467238      14
Co     1.79457275    0.04120875    1.74837276      15
Cr     0.05901516    1.72696073   -1.69918473      16
Ni     0.01777112    1.73982672    1.71513289      17
Co    -1.69207731   -1.69761994   -0.01439294      18
