          18
Lattice="  24.8920   0.0000   0.0000   0.0000  24.8920   0.0000   0.0000   0.0000  24.8920 " ConfE="      -5942.1041" DelE="          0.0000"
Co    -0.09127659   -0.02921211   -3.46794638       1
Co     0.01343311    3.50220077   -0.01656484       2
Co    -0.06470720   -0.00207942    3.60509185       3
Co    -0.08776510   -3.54527411   -0.05081087       4
Cr    -3.56872044   -0.05429753    0.07050233       5
Co     3.49979272   -0.03451447    0.04043139       6
Ni    -1.78694600    0.00979194   -1.71921189       7
Cr     1.75389193   -0.09467932   -1.77668453       8
Ni    -1.78061332    1.75266557    0.04722101       9
Cr     1.70461747    1.77786322   -0.00701722      10
Cr    -0.03869818   -1.85106974   -1.75017221      11
Ni    -0.03055992    1.78194167    1.84292002      12
Co    -0.05177142   -1.79886903    1.81275565      13
Co    -1.84740739   -1.80147750   -0.00280074      14
Ni     1.72706708   -1.81671021    0.03372931      15
Cr    -1.76391338   -0.08909467    1.80214929      16
Ni     1.74560590   -0.01021851    1.81111633      17
Ni     0.00000000    0.00000000    0.00000000      18
          18
Lattice="  24.8920   0.0000   0.0000   0.0000  24.8920   0.0000   0.0000   0.0000  24.8920 " ConfE="      -5941.5779" DelE="          0.5262"
Co    -0.09245693   -0.02917867   -3.44140580       1
Co     0.00246738    3.51116583   -0.01829502       2
Co    -0.06388307    0.01638714    3.59477752       3
Co    -0.08652881   -3.54711171   -0.05803393       4
Cr    -3.63659519   -0.05894454    0.08139595       5
Co     3.52603494   -0.04255457    0.03748215       6
Ni    -1.92905359   -0.04365124   -1.76383051       7
Cr     1.90404399   -0.20349178   -1.85248159       8
Ni    -1.90376707    1.77093512    0.05519094       9
Cr     1.88482902    1.83969526    0.09326751      10
Cr    -0.03287638   -1.78966526   -1.69465900      11
Ni    -0.02890609    1.75018876    1.74893410      12
Co    -0.05430187   -1.74466798    1.75430623      13
Co    -1.82873019   -1.76483655   -0.01118565      14
Ni     1.72394785   -1.79300914    0.02592890      15
Cr    -1.70465230   -0.09699892    1.69586412      16
Ni     1.75195384   -0.00698758    1.78677390      17
Ni     0.04663048    0.70861626   -0.74173600      18
          18
Lattice="  24.8920   0.0000   0.0000   0.0000  24.8920   0.0000   0.0000   0.0000  24.8920 " ConfE="      -5942.2196" DelE="         -0.1156"
Co    -0.09254386   -0.06149368   -3.51542292       1
Co    -0.01474972    3.56438764    0.03945748       2
Co    -0.06472274    0.00370838    3.62278223       3
Co    -0.08970237   -3.56742897   -0.04666684       4
Cr    -3.59612560   -0.06736235    0.08691596       5
Co     3.51815701   -0.04653551    0.04696026       6
Ni    -1.77716225   -0.03663576   -1.67858704       7
Cr     1.73266567   -0.12837634   -1.74665986       8
Ni    -1.78094638    1.71438204    0.08605906       9
Cr     1.73266312    1.74016033    0.04787203      10
Cr    -0.02910854   -1.80557199   -1.71629416      11
Ni    -0.03002503    1.76370306    1.81569077      12
Co    -0.07036091   -1.76828221    1.78807710      13
Co    -1.82068199   -1.78902174    0.01884188      14
Ni     1.68134536   -1.78514539    0.03123588      15
Cr    -1.71940588   -0.12168081    1.76348240      16
Ni     1.70955784   -0.01398002    1.78025319      17
Ni    -0.01001831    1.69541971   -1.67042147      18
