          18
Lattice="  24.8920   0.0000   0.0000   0.0000  24.8920   0.0000   0.0000   0.0000  24.8920 " ConfE="      -5928.9686" DelE="          0.0000"
Cr     3.42128943   -0.05371163   -0.02897285       1
Co     0.05805250   -3.59103613    0.02292925       2
Cr    -3.54189647    0.10722846   -0.00215345       3
Ni    -0.02564822    3.55472425    0.04442175       4
Co     0.03395776   -0.07048239   -3.50933197       5
Co    -0.07296127    0.01200234    3.60639014       6
Co     1.79472258   -0.10427071   -1.71744402       7
Ni     1.72602920   -0.00678387    1.79849092       8
Co     0.07186099   -1.86269163   -1.74526568       9
Ni    -0.00537387   -1.78634693    1.77521844      10
Ni     1.72313689    1.79634423    0.03654573      11
Ni    -1.78590251   -1.76778173    0.01477581      12
Co    -1.82036987    1.76538526    0.03047580      13
Co     0.01746163    1.75165132   -1.76806137      14
Ni    -0.02352657    1.77584580    1.81512406      15
Ni    -1.74629235   -0.01695160   -1.74886051      16
Ni    -1.78687116   -0.00254733    1.80845406      17
Co     0.00000000    0.00000000    0.00000000      18
          18
Lattice="  24.8920   0.0000   0.0000   0.0000  24.8920   0.0000   0.0000   0.0000  24.8920 " ConfE="      -5928.5921" DelE="          0.3765"
Cr     3.33776702   -0.05807462    0.02963244       1
Co     0.04048967   -3.55796933    0.01782244       2
Cr    -3.56441704    0.09542979    0.00051409       3
Ni    -0.01865621    3.54919641    0.04861192       4
Co     0.02478196   -0.06920744   -3.57321881       5
Co    -0.08411992    0.02614555    3.65033103       6
Co     1.85179852   -0.03742597   -1.95297475       7
Ni     1.75648888    0.03670632    1.96764108       8
Co     0.06657833   -1.90516590   -1.88608347       9
Ni    -0.02661993   -1.79980674    1.87938796      10
Ni     1.71710656    1.76120706    0.04991273      11
Ni    -1.72721065   -1.74698669    0.01924194      12
Co    -1.80597936    1.73888699    0.03459688      13
Co     0.03421971    1.68245686   -1.71741722      14
Ni    -0.01702234    1.74986355    1.80569607      15
Ni    -1.67609175   -0.04408853   -1.70957034      16
Ni    -1.75250821   -0.00575850    1.79166894      17
Co     0.64825659   -0.54421946   -0.04202330      18
          18
Lattice="  24.8920   0.0000   0.0000   0.0000  24.8920   0.0000   0.0000   0.0000  24.8920 " ConfE="      -5929.5960" DelE="         -0.6274"
Cr     3.50360172   -0.04584213   -0.04007617       1
Co     0.00826354   -3.64674166    0.00582121       2
Cr    -3.58400670    0.10784851    0.00060416       3
Ni    -0.02194083    3.55499439    0.04510525       4
Co    -0.00077127   -0.04620396   -3.54094809       5
Co    -0.07912717    0.01508170    3.61404052       6
Co     1.77143980   -0.07130465   -1.75969387       7
Ni     1.71067674   -0.01502995    1.77175431       8
Co     0.01351049   -1.84333340   -1.77783675       9
Ni    -0.03179377   -1.77272167    1.78012356      10
Ni     1.69881425    1.72297643    0.02014958      11
Ni    -1.75171243   -1.74037110    0.01245372      12
Co    -1.83115305    1.76589308    0.03531738      13
Co     0.00653800    1.73032370   -1.74910463      14
Ni    -0.02833052    1.75118043    1.78852298      15
Ni    -1.73149398   -0.00594816   -1.70718416      16
Ni    -1.78499370    0.00318313    1.78795599      17
Co     1.72130391   -1.82644386   -0.02010596      18
