          18
Lattice="  24.8920   0.0000   0.0000   0.0000  24.8920   0.0000   0.0000   0.0000  24.8920 " ConfE="      -5933.9256" DelE="          0.0000"
Ni    -0.00141577   -0.06869731    3.53056133       1
Ni    -0.02086765    3.42753610    0.07772865       2
Ni     3.53690729   -0.07489828   -0.00333305       3
Co    -0.05939009   -3.68211730    0.01034193       4
Cr    -0.04240685   -0.05627172   -3.50746974       5
Cr    -3.56341195   -0.07734230   -0.03725074       6
Ni     1.74188632    0.01702611    1.72862733       7
Ni    -1.76354946   -0.06790589    1.77268962       8
Ni    -1.76956714    1.70572186    0.05082803       9
Cr     1.77696441    1.76930227    0.01496184      10
Ni     1.76704013   -1.85772189    0.01634510      11
Ni     1.75199875   -0.07027405   -1.75368269      12
Ni     0.00957461   -1.84980580    1.77563250      13
Ni    -0.01676700   -1.85396845   -1.75460336      14
Ni    -1.76762093   -1.85891638    0.00427179      15
Co    -0.02153787    1.73521535   -1.80552486      16
Co    -1.79607229   -0.06095183   -1.76895605      17
Co     0.00000000    0.00000000    0.00000000      18
          18
Lattice="  24.8920   0.0000   0.0000   0.0000  24.8920   0.0000   0.0000   0.0000  24.8920 " ConfE="      -5933.4877" DelE="          0.4379"
Ni     0.00671299   -0.06342060    3.50797219       1
Ni    -0.02793058    3.40457995    0.05701698       2
Ni     3.56565400   -0.08704887   -0.01442263       3
Co    -0.06932091   -3.66672745    0.01601493       4
Cr    -0.04494740   -0.05399467   -3.53753042       5
Cr    -3.64658339   -0.09750193   -0.05740442       6
Ni     1.91305607   -0.09306020    1.79974487       7
Ni    -1.84065963   -0.08075216    1.76276054       8
Ni    -1.92674912    1.71702044   -0.03208499       9
Cr     1.92418183    1.82842008   -0.05097510      10
Ni     1.75520341   -1.83117070    0.01960296      11
Ni     1.71100464   -0.05358891   -1.70191559      12
Ni     0.01194201   -1.78491367    1.75199409      13
Ni    -0.02476681   -1.81389577   -1.73072474      14
Ni    -1.76425516   -1.81592564    0.00217740      15
Co    -0.03123082    1.70373102   -1.77543179      16
Co    -1.80168079   -0.05973933   -1.76911268      17
Co     0.11966655    0.87471759    0.71543343      18
          18
Lattice="  24.8920   0.0000   0.0000   0.0000  24.8920   0.0000   0.0000   0.0000  24.8920 " ConfE="      -5934.2217" DelE="         -0.2962"
Ni     0.00883502   -0.08374100    3.54993488       1
Ni    -0.03067640    3.49183438   -0.00228301       2
Ni     3.55229272   -0.07962029   -0.00899570       3
Co    -0.06574123   -3.69123355    0.01035403       4
Cr    -0.03768690   -0.06514864   -3.54467765       5
Cr    -3.59958801   -0.08817308   -0.04218445       6
Ni     1.75563334   -0.02001956    1.69813546       7
Ni    -1.75338842   -0.08148537    1.74662783       8
Ni    -1.74677593    1.65359539    0.00809780       9
Cr     1.77827263    1.77077130   -0.01613973      10
Ni     1.75308269   -1.85366805    0.01036130      11
Ni     1.71060542   -0.07040372   -1.71124667      12
Ni     0.01001317   -1.82398085    1.76041800      13
Ni    -0.02268203   -1.84065815   -1.74714017      14
Ni    -1.76063052   -1.84941380   -0.00130685      15
Co    -0.01494281    1.70058068   -1.77970428      16
Co    -1.78418413   -0.07761205   -1.76728410      17
Co     0.04143018    1.72528362    1.73726974      18
