          18
Lattice="  24.8920   0.0000   0.0000   0.0000  24.8920   0.0000   0.0000   0.0000  24.8920 " ConfE="      -5923.6963" DelE="          0.0000"
Ni     3.42824887    0.00940806    0.01929437       1
Ni    -3.63759753    0.02841426    0.01553455       2
Cr    -0.10511755   -3.50315419    0.03364171       3
Co    -0.07769738   -0.00094365   -3.56220232       4
Co    -0.04767442    0.05225785    3.54996867       5
Cr    -0.06330537    3.61712315   -0.06613417       6
Ni    -0.07777971   -1.75544017   -1.74620338       7
Cr     1.63838514   -0.00588568   -1.67268951       8
Cr     1.62448394   -0.04407839    1.71324849       9
Ni    -0.11197237    1.79599563   -1.78222307      10
Co     0.01230675   -1.76103172    1.70363042      11
Ni    -1.86389432    0.00262702   -1.78477246      12
Ni    -1.85337798    1.79561236   -0.00081975      13
Cr     1.66703699    1.85227359   -0.01866159      14
Co    -0.03900936    1.80105238    1.75891959      15
Cr    -1.72615071    0.00032521    1.74680225      16
Co    -1.84714332   -1.75272540    0.01581095      17
Co     0.00000000    0.00000000    0.00000000      18
          18
Lattice="  24.8920   0.0000   0.0000   0.0000  24.8920   0.0000   0.0000   0.0000  24.8920 " ConfE="      -5923.3334" DelE="          0.3629"
Ni     3.39128938    0.00163144    0.01971867       1
Ni    -3.64005890    0.02779705    0.01469483       2
Cr    -0.01862975   -3.38123061    0.04819560       3
Co    -0.11091350    0.03282037   -3.62988785       4
Co    -0.06647883    0.07850319    3.62089550       5
Cr    -0.03613716    3.61048834   -0.07425285       6
Ni    -0.12010223   -1.75169512   -1.87875211       7
Cr     1.66644704    0.02588838   -1.87942138       8
Cr     1.69737901    0.01023486    1.97911370       9
Ni    -0.10066063    1.75272090   -1.77323889      10
Co    -0.09800141   -1.76040405    1.91514368      11
Ni    -1.84608428    0.00234524   -1.78910814      12
Ni    -1.81610769    1.75685298   -0.00063293      13
Cr     1.60771676    1.74190631   -0.01928391      14
Co    -0.02249813    1.74686933    1.73003902      15
Cr    -1.69011507    0.00334724    1.73473205      16
Co    -1.74404190   -1.69373211    0.03374429      17
Co     0.89811728   -0.81132391    0.05424938      18
          18
Lattice="  24.8920   0.0000   0.0000   0.0000  24.8920   0.0000   0.0000   0.0000  24.8920 " ConfE="      -5923.8119" DelE="         -0.1156"
Ni     3.49218372    0.03178234    0.01499208       1
Ni    -3.65135874    0.03059474    0.01826558       2
Cr    -0.13456421   -3.53695677    0.02308383       3
Co    -0.08708795    0.00386654   -3.57800547       4
Co    -0.05326487    0.06912879    3.57527963       5
Cr    -0.05697965    3.64774363   -0.07485422       6
Ni    -0.10646264   -1.73483038   -1.75241863       7
Cr     1.59656518    0.01949099   -1.64898560       8
Cr     1.58088770   -0.00424688    1.68919171       9
Ni    -0.11283372    1.77302766   -1.75224494      10
Co    -0.05740261   -1.70706209    1.72808433      11
Ni    -1.85608144    0.00648192   -1.76709676      12
Ni    -1.84020066    1.77995021    0.00320829      13
Cr     1.63561931    1.76920007   -0.00596092      14
Co    -0.03798282    1.76363687    1.71406515      15
Cr    -1.69388637   -0.00443864    1.71093430      16
Co    -1.81987683   -1.72404340    0.02280657      17
Co     1.65796861   -1.69493655   -0.00934935      18
