          18
Lattice="  24.8920   0.0000   0.0000   0.0000  24.8920   0.0000   0.0000   0.0000  24.8920 " ConfE="      -5943.1664" DelE="          0.0000"
Ni     3.51804104   -0.02266577   -0.11153474       1
Co    -0.05872376   -0.01780785   -3.63706702       2
Cr    -0.02634793    0.00193612    3.46648075       3
Cr    -3.56628636   -0.03090873   -0.02723815       4
Co    -0.00468510   -3.55222753   -0.05635332       5
Cr    -0.01135346    3.45763389   -0.01517667       6
Ni     0.01401903   -1.73012964   -1.83388719       7
Ni     0.01969092    1.71227362   -1.82228635       8
Ni     1.76203134    0.00418367    1.74329348       9
Cr     1.74762420   -1.69227288   -0.12984012      10
Co     1.76700588    1.74389324   -0.04418629      11
Ni    -1.79201306   -1.77712728   -0.06167998      12
Ni    -1.79817678    1.74949358   -0.04992828      13
Co    -1.80716110   -0.01201360   -1.83260559      14
Cr     0.02594923   -1.82389313    1.65622750      15
Cr    -0.02966626    1.81105463    1.72096804      16
Co    -1.76659645   -0.02112617    1.76055651      17
Co     0.00000000    0.00000000    0.00000000      18
          18
Lattice="  24.8920   0.0000   0.0000   0.0000  24.8920   0.0000   0.0000   0.0000  24.8920 " ConfE="      -5942.4185" DelE="          0.7480"
Ni     3.49340077   -0.02725255   -0.10903379       1
Co    -0.03673263   -0.01883130   -3.55678078       2
Cr    -0.01840174    0.01869323    3.49062656       3
Cr    -3.57269176   -0.02980380   -0.04016762       4
Co    -0.02909718   -3.60878817   -0.04615744       5
Cr    -0.04062488    3.53765237    0.03029677       6
Ni    -0.07288731   -1.90542740   -1.88878709       7
Ni    -0.04219673    1.84491129   -1.83118151       8
Ni     1.72201180    0.00750218    1.67989661       9
Cr     1.75966720   -1.91318164   -0.03568721      10
Co     1.78865606    1.89954203    0.01630963      11
Ni    -1.75340755   -1.76187389   -0.06843043      12
Ni    -1.75398584    1.72992716   -0.04672388      13
Co    -1.73351262   -0.01577160   -1.80122919      14
Cr    -0.00463485   -1.73273543    1.63555666      15
Cr    -0.00796406    1.77022139    1.67575335      16
Co    -1.71868928   -0.01356658    1.72060785      17
Co     0.95414819   -0.07421105   -0.89523321      18
          18
Lattice="  24.8920   0.0000   0.0000   0.0000  24.8920   0.0000   0.0000   0.0000  24.8920 " ConfE="      -5943.0632" DelE="          0.1033"
Ni     3.56141510   -0.00978297   -0.07125448       1
Co    -0.06412229   -0.01984570   -3.64378696       2
Cr    -0.02988522    0.01513971    3.50178217       3
Cr    -3.59365768   -0.02770072   -0.02633619       4
Co    -0.01252605   -3.57205526   -0.05214617       5
Cr    -0.02391413    3.48653630    0.00098650       6
Ni    -0.03563935   -1.76397027   -1.83125531       7
Ni    -0.00930530    1.71557267   -1.80004931       8
Ni     1.71160684   -0.00001801    1.69662232       9
Cr     1.70086819   -1.68191911   -0.11194152      10
Co     1.72456950    1.73699418   -0.02776090      11
Ni    -1.77217403   -1.74906902   -0.06073866      12
Ni    -1.76904039    1.71694323   -0.04646194      13
Co    -1.79307078   -0.01527587   -1.83367295      14
Cr     0.00719616   -1.77973649    1.64473919      15
Cr    -0.03699436    1.79566014    1.70535647      16
Co    -1.71753127   -0.02093877    1.73681922      17
Co     1.74910862   -0.06992850   -1.80435848      18
