          18
Lattice="  24.8920   0.0000   0.0000   0.0000  24.8920   0.0000   0.0000   0.0000  24.8920 " ConfE="      -5936.6695" DelE="          0.0000"
Co     0.03639962   -0.01668204   -3.57126504       1
Co    -3.54245015    0.02133598   -0.01428769       2
Ni     3.56530776   -0.01062078   -0.00086462       3
Ni     0.00934994   -3.54464332    0.00535199       4
Cr     0.08575175    3.46156717    0.02143315       5
Co     0.01414440   -0.02036906    3.57161333       6
Ni    -0.05776661    1.67736624   -1.77443019       7
Ni     1.78907855   -1.76964390    0.00221081       8
Co    -1.77300635   -1.76557851   -0.00240669       9
Co    -0.02211195   -1.76526263   -1.79041345      10
Co    -1.77732966    1.72064483    0.02300939      11
Ni     0.01189712   -1.77921832    1.76555575      12
Co     1.79138177   -0.01896373   -1.80587191      13
Co     1.76863346    1.72462539    0.00088380      14
Co    -1.74297014   -0.01751984    1.80961060      15
Cr     1.78694613   -0.03489548    1.80071692      16
Co     0.02312523    1.75521236    1.80423169      17
Co     0.00000000    0.00000000    0.00000000      18
          18
Lattice="  24.8920   0.0000   0.0000   0.0000  24.8920   0.0000   0.0000   0.0000  24.8920 " ConfE="      -5932.4237" DelE="          4.2459"
Co     0.04221505   -0.02139282   -3.60355500       1
Co    -3.61294861    0.00656402   -0.02761621       2
Ni     3.60712472   -0.01483661   -0.00295756       3
Ni     0.03518879   -3.56532993   -0.06364315       4
Cr     0.04930988    3.51460859   -0.01297458       5
Co    -0.12582610    1.02040732    3.58296710       6
Ni    -0.09042207    1.55879602   -1.68911467       7
Ni     1.91687606   -1.78216118   -0.09977780       8
Co    -1.83334183   -1.72367187   -0.10587773       9
Co    -0.00995531   -1.73261652   -1.78200298      10
Co    -1.86844294    1.67583403   -0.01457995      11
Ni     0.14441885   -1.13850224    3.47367679      12
Co     1.80562119   -0.02671501   -1.83546365      13
Co     1.81272892    1.66314320   -0.04485452      14
Co    -1.72110866   -0.02135859    1.83837816      15
Cr     1.72266348   -0.04024669    1.83636915      16
Co    -0.00242619    1.79202493    1.44473299      17
Co     0.04092670   -1.51691825    1.22826452      18
          18
Lattice="  24.8920   0.0000   0.0000   0.0000  24.8920   0.0000   0.0000   0.0000  24.8920 " ConfE="      -5936.5438" DelE="          0.1257"
Co     0.03913625   -0.01485178   -3.57190064       1
Co    -3.53232040    0.02079490   -0.00943909       2
Ni     3.56975920   -0.01320951   -0.00034927       3
Ni     0.00950310   -3.54088861    0.00858156       4
Cr     0.08484618    3.47377688    0.01633626       5
Co     0.02386146    1.77063963    1.80216026       6
Ni    -0.05995315    1.66979673   -1.76633701       7
Ni     1.78621655   -1.77638374    0.01967079       8
Co    -1.76608055   -1.76577842    0.00642616       9
Co    -0.02077996   -1.75934708   -1.78498112      10
Co    -1.77563156    1.72250111    0.02634183      11
Ni     0.03320033   -0.02601166    3.56786982      12
Co     1.78582348   -0.02518042   -1.78905135      13
Co     1.76826997    1.72453087    0.00205841      14
Co    -1.73927720   -0.01991288    1.80981709      15
Cr     1.77873485   -0.05442593    1.78511203      16
Co     0.00630914   -0.00976842    0.02811174      17
Co    -0.01546212   -1.80602684    1.80417783      18
