          18
Lattice="  24.8920   0.0000   0.0000   0.0000  24.8920   0.0000   0.0000   0.0000  24.8920 " ConfE="      -5929.8895" DelE="          0.0000"
Co     0.00647091    3.47179901    0.10879215       1
Co     0.01339807   -0.10854041   -3.50798226       2
Cr    -0.02554556   -3.64282924    0.10935424       3
Cr    -0.03619895   -0.05579134    3.54436289       4
Cr    -3.54860992   -0.08462156    0.09108531       5
Ni     3.54016949   -0.06215581    0.03298871       6
Co    -1.79074498    1.75361851    0.06445199       7
Co     1.77091456    1.73726858    0.05999091       8
Ni    -1.72840525   -0.02029080   -1.72142802       9
Cr     1.72783550   -0.09154194   -1.75129054      10
Cr    -0.00426372    1.80785552    1.76507869      11
Cr    -0.03694743   -1.90842626   -1.70093645      12
Cr     0.02628719   -1.82835717    1.84308862      13
Co    -1.75942795   -0.05829560    1.79245688      14
Ni     1.75392568   -0.04355863    1.80901442      15
Co    -1.72578821   -1.84437098    0.07674038      16
Ni     1.77022140   -1.84712400    0.04476536      17
Ni     0.00000000    0.00000000    0.00000000      18
          18
Lattice="  24.8920   0.0000   0.0000   0.0000  24.8920   0.0000   0.0000   0.0000  24.8920 " ConfE="      -5929.4717" DelE="          0.4178"
Co     0.00488730    3.39894163    0.09314205       1
Co     0.00752009   -0.11296739   -3.49182689       2
Cr    -0.01162547   -3.65541952    0.09646203       3
Cr    -0.02936113   -0.06328141    3.54644252       4
Cr    -3.61720094   -0.08644038    0.09316406       5
Ni     3.60130952   -0.06911472    0.04352114       6
Co    -1.96515669    1.79411058    0.07644324       7
Co     1.99383550    1.80973925    0.12319203       8
Ni    -1.85086610   -0.06039701   -1.74825256       9
Cr     1.86789380   -0.13017384   -1.76312917      10
Cr    -0.02573772    1.75586837    1.74256205      11
Cr    -0.02129335   -1.78802469   -1.56564191      12
Cr     0.00762911   -1.75002332    1.73675819      13
Co    -1.73297594   -0.04171589    1.73788871      14
Ni     1.73416427   -0.02615325    1.75493363      15
Co    -1.72236564   -1.81224390    0.06376978      16
Ni     1.82299818   -1.85861544    0.05382854      17
Ni     0.03683786    0.64444291   -0.52880932      18
          18
Lattice="  24.8920   0.0000   0.0000   0.0000  24.8920   0.0000   0.0000   0.0000  24.8920 " ConfE="      -5929.4829" DelE="          0.4066"
Co     0.00401026    3.38492895    0.09405136       1
Co     0.00558165   -0.10152745   -3.47565030       2
Cr    -0.01038417   -3.63651834    0.10567848       3
Cr    -0.02656344   -0.06256139    3.55678994       4
Cr    -3.64131573   -0.08665101    0.08919596       5
Ni     3.61537679   -0.07442245    0.05133799       6
Co    -1.97791199    1.78805433    0.07629976       7
Co     1.98734191    1.78256516    0.13526154       8
Ni    -1.88884233   -0.07161782   -1.75550170       9
Cr     1.88829309   -0.14159904   -1.76124424      10
Cr    -0.03047248    1.67201622    1.72214584      11
Cr    -0.02519020   -1.76394740   -1.54621288      12
Cr    -0.00572454   -1.69180756    1.72527487      13
Co    -1.75621507   -0.03935652    1.74288149      14
Ni     1.78815591   -0.04850320    1.79981572      15
Co    -1.73508767   -1.80435479    0.06268349      16
Ni     1.82416251   -1.84803278    0.06296154      17
Ni     0.02195507    0.73318526   -0.67882379      18
