          18
Lattice="  24.8920   0.0000   0.0000   0.0000  24.8920   0.0000   0.0000   0.0000  24.8920 " ConfE="      -5949.2058" DelE="          0.0000"
Cr    -0.04109105   -0.08447554   -3.34349561       1
Co     0.01179236    3.36101134    0.04301013       2
Co     3.53569042   -0.10785413    0.09509720       3
Cr     0.00440982   -3.74809283    0.08160429       4
Co    -0.03204569   -0.11500914    3.62098075       5
Cr    -3.54426856   -0.11351720    0.13096838       6
Ni     1.77763645   -0.06619028   -1.68310747       7
Cr     1.73843906    1.75175419    0.03301793       8
Cr    -1.79172476   -0.06761185   -1.66764738       9
Co    -1.75208977    1.64876026    0.07130345      10
Ni     1.74685824   -1.86742465    0.08707471      11
Ni     1.73566828   -0.09154145    1.84297167      12
Ni    -1.74492266   -1.90101657    0.06728157      13
Cr     0.08301948   -1.94034873   -1.71445378      14
Cr    -0.01978749    1.68319150    1.88173677      15
Cr    -0.03298342   -1.93267980    1.88785099      16
Cr    -1.76888435   -0.13851640    1.88470125      17
Cr     0.00000000    0.00000000    0.00000000      18
          18
Lattice="  24.8920   0.0000   0.0000   0.0000  24.8920   0.0000   0.0000   0.0000  24.8920 " ConfE="      -5948.7740" DelE="          0.4318"
Cr    -0.02670193   -0.11985406   -3.36284979       1
Co     0.00495867    3.33505368    0.05987258       2
Co     3.58318060   -0.12271509    0.10537804       3
Cr     0.01250010   -3.71904835    0.07200761       4
Co    -0.03077602   -0.11048168    3.62880712       5
Cr    -3.62230380   -0.13296577    0.16964815       6
Ni     1.87669484   -0.11339038   -1.70928098       7
Cr     1.87972639    1.75745297    0.04450095       8
Cr    -1.89717994   -0.14365821   -1.65234011       9
Co    -1.90811331    1.69360278    0.13438047      10
Ni     1.73419593   -1.83388659    0.07137819      11
Ni     1.69225010   -0.05893510    1.77658822      12
Ni    -1.73762419   -1.87642423    0.05760272      13
Cr     0.08501596   -1.89685708   -1.68493769      14
Cr    -0.03011584    1.66537106    1.85423235      15
Cr    -0.03228557   -1.86196861    1.82149878      16
Cr    -1.70806912   -0.10068462    1.76822556      17
Cr    -0.02298367    0.72330292   -0.61622099      18
          18
Lattice="  24.8920   0.0000   0.0000   0.0000  24.8920   0.0000   0.0000   0.0000  24.8920 " ConfE="      -5949.4819" DelE="         -0.2762"
Cr    -0.02914098   -0.13469716   -3.43276549       1
Co    -0.00210713    3.45330459    0.08062437       2
Co     3.58000355   -0.13425836    0.10643178       3
Cr     0.00700067   -3.73585310    0.06912572       4
Co    -0.03302650   -0.12397987    3.63500340       5
Cr    -3.57878864   -0.12282518    0.14034731       6
Ni     1.78264862   -0.09874877   -1.66035042       7
Cr     1.76163194    1.67933267    0.07338507       8
Cr    -1.75972214   -0.11289125   -1.60507689       9
Co    -1.75728946    1.62240563    0.11887896      10
Ni     1.73733960   -1.85904056    0.09273792      11
Ni     1.72497652   -0.11192598    1.82801610      12
Ni    -1.74522569   -1.89132960    0.08108194      13
Cr     0.05877819   -1.83709300   -1.65375368      14
Cr    -0.01909023    1.60068659    1.74648985      15
Cr    -0.03986765   -1.87616994    1.84259242      16
Cr    -1.76032060   -0.14977417    1.85751988      17
Cr    -0.02368024    1.58195121   -1.52964558      18
