          18
Lattice="  24.8920   0.0000   0.0000   0.0000  24.8920   0.0000   0.0000   0.0000  24.8920 " ConfE="      -5938.2531" DelE="          0.0000"
Ni    -0.04766706   -3.48263509    0.05564700       1
Co    -0.05291323    0.00712888    3.53448233       2
Co    -0.02492099    3.54996233   -0.03171568       3
Ni    -0.05677512    0.03193475   -3.57297284       4
Ni    -3.58063098    0.03261925    0.05801993       5
Cr     3.47161172    0.00689088    0.00437958       6
Cr    -1.77165351   -1.74164016    0.06052235       7
Co     1.72204014   -1.72382013    0.04561583       8
Cr    -1.60108968   -0.06552116    1.76834794       9
Cr     1.64549363   -0.02406599    1.82599793      10
Co    -0.07286646   -1.77305129   -1.79920014      11
Co    -0.01991530    1.83408826    1.78262531      12
Co    -0.01350177    1.77692600   -1.78337803      13
Co    -1.80009205   -0.01371345   -1.75495163      14
Cr     1.70766028   -0.00207264   -1.80467070      15
Ni    -1.82451362    1.76075927    0.02490538      16
Co     1.74999362    1.77265821    0.01544636      17
Ni     0.00000000    0.00000000    0.00000000      18
          18
Lattice="  24.8920   0.0000   0.0000   0.0000  24.8920   0.0000   0.0000   0.0000  24.8920 " ConfE="      -5937.5080" DelE="          0.7451"
Ni    -0.04504931   -3.47135132    0.04590520       1
Co    -0.05681441   -0.00584235    3.52307964       2
Co    -0.02043932    3.54308764   -0.01906666       3
Ni    -0.04910502    0.03134948   -3.56433026       4
Ni    -3.65170449    0.04494961    0.02090400       5
Cr     3.56696165    0.01320572   -0.01171655       6
Cr    -1.94755729   -1.75381947   -0.13736185       7
Co     1.87901597   -1.74921603   -0.01682215       8
Cr    -1.91832382    0.14282804    1.86357760       9
Cr     1.83594021    0.05353432    1.80415680      10
Co    -0.02240883   -1.69910582   -1.70888820      11
Co    -0.02399019    1.75667658    1.76905981      12
Co    -0.00451938    1.70775795   -1.72245726      13
Co    -1.79117667   -0.03532351   -1.71368867      14
Cr     1.65838076   -0.02530196   -1.68159746      15
Ni    -1.80558022    1.71707911    0.01924899      16
Co     1.72780630    1.70401323    0.03356624      17
Ni    -0.10324142   -1.06627988    1.04629337      18
          18
Lattice="  24.8920   0.0000   0.0000   0.0000  24.8920   0.0000   0.0000   0.0000  24.8920 " ConfE="      -5938.1123" DelE="          0.1408"
Ni    -0.04724929   -3.54068349    0.02685075       1
Co    -0.06431742    0.03487374    3.59024154       2
Co    -0.02237948    3.57160723   -0.02504773       3
Ni    -0.05363706    0.03385545   -3.56431886       4
Ni    -3.60820828    0.04676371    0.04131867       5
Cr     3.52128781    0.01515043   -0.00282753       6
Cr    -1.75792673   -1.67812555   -0.04074480       7
Co     1.69672967   -1.67854854    0.00825610       8
Cr    -1.60224294    0.04757859    1.65478471       9
Cr     1.64469141    0.05001762    1.73446143      10
Co    -0.07304131   -1.73870223   -1.73454175      11
Co    -0.03361368    1.78404675    1.76274420      12
Co    -0.00890861    1.74324663   -1.74745930      13
Co    -1.77760908   -0.01101605   -1.70939789      14
Cr     1.64508483    0.00543181   -1.69000946      15
Ni    -1.81724652    1.77788000   -0.00169351      16
Co     1.71401754    1.73233933    0.01552260      17
Ni    -0.03069116   -1.75585552    1.77446845      18
