          18
Lattice="  24.8920   0.0000   0.0000   0.0000  24.8920   0.0000   0.0000   0.0000  24.8920 " ConfE="      -5935.5496" DelE="          0.0000"
Ni    -0.00182570    0.03611220   -3.44327396       1
Co    -0.00010882    3.59159015    0.01340556       2
Co     0.02113541   -0.01176176    3.60996915       3
Co    -0.03495026   -3.60245935    0.06489914       4
Co    -3.54339691    0.00708058    0.00930464       5
Co     3.58263116   -0.03081973    0.05704980       6
Ni    -1.73337723    1.79816264    0.03430354       7
Ni     1.74139775    1.78397606    0.01996084       8
Ni     0.00964488    1.78625990    1.84318630       9
Co    -1.77713897   -0.01641744   -1.72076224      10
Co     1.82351468   -0.03003438   -1.69520839      11
Cr    -0.03790807   -1.79067521   -1.68124083      12
Cr     0.01804361   -1.73296884    1.76818192      13
Cr    -1.78223035   -1.72266020    0.05471018      14
Co     1.76521911   -1.80529671    0.02212621      15
Co    -1.76502391    0.02902851    1.81219220      16
Cr     1.79731697   -0.00946322    1.76279276      17
Co     0.00000000    0.00000000    0.00000000      18
          18
Lattice="  24.8920   0.0000   0.0000   0.0000  24.8920   0.0000   0.0000   0.0000  24.8920 " ConfE="      -5934.2087" DelE="          1.3409"
Ni    -0.00219563    0.00769763   -3.48079386       1
Co     0.00519068    3.49801148    0.02060428       2
Co     0.03307548   -0.04713853    3.50434977       3
Co    -0.04219703   -3.45410905    0.07036415       4
Co    -3.63557566   -0.00510060    0.02524777       5
Co     3.70085945   -0.05288795    0.08329059       6
Ni    -1.84434305    1.77925360    0.10580204       7
Ni     1.87727088    1.71787775    0.12537554       8
Ni     0.02376381    1.72577195    1.78696135       9
Co    -1.93192722   -0.08032088   -1.71801493      10
Co     1.97609616   -0.08358116   -1.68993150      11
Cr    -0.05155991   -1.64023926   -1.66736942      12
Cr     0.05476224   -0.80001088    0.88574605      13
Cr    -1.89411787   -1.70569605    0.02302251      14
Co     1.90572476   -1.79298338   -0.02371062      15
Co    -1.86263557    0.03692453    1.81370955      16
Cr     1.94987533   -0.03283976    1.83388612      17
Co     0.00657739    1.05498999   -1.18167584      18
          18
Lattice="  24.8920   0.0000   0.0000   0.0000  24.8920   0.0000   0.0000   0.0000  24.8920 " ConfE="      -5935.2357" DelE="          0.3139"
Ni    -0.01052811    0.00421949   -3.50379693       1
Co     0.00416595    3.60189879    0.02817011       2
Co     0.01694178   -0.00601332    3.61959818       3
Co    -0.03641882   -3.60726507    0.05834216       4
Co    -3.56824521    0.00534634    0.00512215       5
Co     3.60117753   -0.03170322    0.05555115       6
Ni    -1.73317011    1.77506244    0.05030536       7
Ni     1.73944505    1.73549783    0.06166154       8
Ni     0.01014534    1.75460778    1.81118070       9
Co    -1.73067820   -0.04088082   -1.67388485      10
Co     1.78333290   -0.03339643   -1.67399454      11
Cr    -0.04168650   -1.68853593   -1.60720747      12
Cr     0.01232339   -1.63365746    1.65245947      13
Cr    -1.78964537   -1.70535556    0.05102707      14
Co     1.74359009   -1.76631822    0.02671114      15
Co    -1.74045864    0.01125719    1.77799589      16
Cr     1.78903745   -0.01886185    1.77503954      17
Co     0.01337736    1.76055758   -1.73540065      18
