          18
Lattice="  24.8920   0.0000   0.0000   0.0000  24.8920   0.0000   0.0000   0.0000  24.8920 " ConfE="      -5923.1643" DelE="          0.0000"
Ni    -3.58392964    0.01159083   -0.02149484       1
Cr     3.41592528   -0.00604187    0.11354751       2
Cr     0.02364523    0.03020840    3.51887714       3
Cr    -0.00689115    0.08286631   -3.54981832       4
Co    -0.03766450    3.54785667   -0.00937900       5
Cr    -0.02303272   -3.54946710    0.07096797       6
Ni    -0.00724404    1.74010616    1.75531938       7
Ni     1.74798079   -1.76713911    0.02417182       8
Ni     0.02304099   -1.72867136    1.79370545       9
Ni    -1.77251770   -0.01910537   -1.78963249      10
Cr     1.73686894    1.73554973    0.03657957      11
Ni    -0.01413713   -1.80673660   -1.81388677      12
Cr    -1.85675898   -0.01396034    1.77349540      13
Co    -1.79272768    1.78198627   -0.03748564      14
Cr    -1.76773460   -1.74797008    0.03188695      15
Co     1.75113499    0.00338101   -1.81687228      16
Cr    -0.01646878    1.77307925   -1.72176029      17
Co     0.00000000    0.00000000    0.00000000      18
          18
Lattice="  24.8920   0.0000   0.0000   0.0000  24.8920   0.0000   0.0000   0.0000  24.8920 " ConfE="      -5922.4245" DelE="          0.7398"
Ni    -3.57713173    0.01310992   -0.01017975       1
Cr     3.43423549   -0.03396504    0.08736790       2
Cr     0.04303583    0.03729880    3.43622124       3
Cr     0.02211951    0.07613225   -3.55741363       4
Co    -0.06380469    3.63500432   -0.02626007       5
Cr    -0.04951412   -3.65496456    0.04497022       6
Ni    -0.10062410    1.94578917    1.78280143       7
Ni     1.76124341   -1.92479055   -0.00609303       8
Ni    -0.00142373   -1.88668970    1.78477082       9
Ni    -1.70189369   -0.01727177   -1.73722697      10
Cr     1.72763072    1.93036995   -0.03380238      11
Ni    -0.00136230   -1.80861618   -1.76960273      12
Cr    -1.70969591   -0.00606862    1.70186491      13
Co    -1.75641830    1.78324796   -0.04669402      14
Cr    -1.72057830   -1.72779100    0.03993282      15
Co     1.70217482    0.01611831   -1.69437215      16
Cr    -0.00783516    1.76498963   -1.67573898      17
Co     1.02801883    0.09506686    0.95589324      18
          18
Lattice="  24.8920   0.0000   0.0000   0.0000  24.8920   0.0000   0.0000   0.0000  24.8920 " ConfE="      -5923.0891" DelE="          0.0753"
Ni    -3.59277182    0.01415408   -0.02475470       1
Cr     3.52303244   -0.00350637    0.04861454       2
Cr    -0.00897998    0.02475053    3.56840113       3
Cr     0.00162414    0.07982124   -3.58533543       4
Co    -0.04427910    3.56598157   -0.01147307       5
Cr    -0.03197200   -3.58609395    0.06780645       6
Ni    -0.02935327    1.72577685    1.72484580       7
Ni     1.72158496   -1.75557075   -0.00039308       8
Ni    -0.02659018   -1.73298777    1.75733747       9
Ni    -1.73542462   -0.01792464   -1.76959258      10
Cr     1.71107274    1.73002379   -0.00535810      11
Ni    -0.02052830   -1.79276237   -1.79646545      12
Cr    -1.82315137   -0.01975620    1.74797560      13
Co    -1.75031787    1.74779271   -0.04998996      14
Cr    -1.76022549   -1.72321780    0.02256818      15
Co     1.71883159    0.02219999   -1.76114606      16
Cr    -0.01277900    1.75046408   -1.70648799      17
Co     1.75315376    0.01026516    1.74418128      18
