          18
Lattice="  24.8920   0.0000   0.0000   0.0000  24.8920   0.0000   0.0000   0.0000  24.8920 " ConfE="      -5949.5276" DelE="          0.0000"
Ni    -0.01678603    3.47282631    0.00625361       1
Ni    -3.44572512    0.03513551    0.02557817       2
Ni     3.62663991    0.00425984    0.02665295       3
Ni     0.06025366   -3.54599093    0.03365456       4
Co     0.07124308   -0.02434685   -3.52011359       5
Co     0.06267314    0.01603404    3.60025592       6
Ni     0.02002478    1.78043220    1.76134437       7
Ni    -1.72210776    0.04183741    1.77983861       8
Cr    -0.04563652    1.71414773   -1.71996364       9
Co    -1.66534452    0.04346104   -1.69638639      10
Ni     1.84354877    1.75506689    0.02553741      11
Ni     1.84057656    0.02000456   -1.74171550      12
Co    -1.69701494   -1.79262699    0.05449348      13
Co     0.10784559   -1.77950763   -1.74305229      14
Co     1.82726335   -0.02536311    1.81510636      15
Cr     0.05651830   -1.74139815    1.79710261      16
Cr     1.82532333   -1.75810388    0.04371440      17
Cr     0.00000000    0.00000000    0.00000000      18
          18
Lattice="  24.8920   0.0000   0.0000   0.0000  24.8920   0.0000   0.0000   0.0000  24.8920 " ConfE="      -5948.7970" DelE="          0.7306"
Ni    -0.00778530    3.46525988    0.02463846       1
Ni    -3.43918145    0.02643852    0.02927910       2
Ni     3.63210745    0.01888527    0.02767851       3
Ni     0.05274899   -3.53206769    0.03347525       4
Co     0.08289292   -0.04497817   -3.56972695       5
Co     0.08570901   -0.00266907    3.66357587       6
Ni     0.06737529    1.79662877    1.88786042       7
Ni    -1.75388172    0.01573901    1.91993088       8
Cr     0.05153485    1.73990729   -1.86021546       9
Co    -1.74575150   -0.05368862   -1.86612408      10
Ni     1.75650222    1.71047653    0.03947077      11
Ni     1.80294907    0.02440646   -1.70926160      12
Co    -1.64673152   -1.68780158    0.05169542      13
Co     0.10598805   -1.72560057   -1.71562914      14
Co     1.81785232   -0.01327049    1.81794565      15
Cr     0.09472069   -1.50372389    1.57528029      16
Cr     1.81921739   -1.73898765   -0.00630802      17
Cr    -0.99612931    0.99621720   -0.05674431      18
          18
Lattice="  24.8920   0.0000   0.0000   0.0000  24.8920   0.0000   0.0000   0.0000  24.8920 " ConfE="      -5949.5305" DelE="         -0.0028"
Ni     0.03640565    3.53326313    0.00832409       1
Ni    -3.48745644   -0.00696234    0.02677442       2
Ni     3.64274238    0.00636239    0.02843664       3
Ni     0.06287681   -3.55894110    0.03026505       4
Co     0.07830578   -0.03280280   -3.54540219       5
Co     0.06932479    0.01720194    3.62595947       6
Ni     0.05056900    1.75806348    1.75711079       7
Ni    -1.69347934    0.02751589    1.77561111       8
Cr    -0.01892269    1.65838729   -1.69697406       9
Co    -1.64794047    0.01341956   -1.69410726      10
Ni     1.80705716    1.72490374    0.02503743      11
Ni     1.82732253    0.01328528   -1.71972889      12
Co    -1.64030826   -1.73736304    0.06899228      13
Co     0.12777090   -1.75511231   -1.71354201      14
Co     1.81926648   -0.04909120    1.81674862      15
Cr     0.06999986   -1.69203039    1.72948252      16
Cr     1.77716439   -1.71085155    0.04549108      17
Cr    -1.68780459    1.71759148   -0.04142497      18
