          18
Lattice="  24.8920   0.0000   0.0000   0.0000  24.8920   0.0000   0.0000   0.0000  24.8920 " ConfE="      -5945.5906" DelE="          0.0000"
Ni     0.03129348    3.47004607   -0.08114521       1
Ni     0.02716918   -3.62984114   -0.10653625       2
Cr     0.05873896   -0.09089380    3.48516187       3
Co     3.57071751   -0.06196399   -0.11787304       4
Co    -3.48474915   -0.05488733   -0.05628577       5
Co     0.03112323   -0.03644503   -3.67183238       6
Ni     1.78027547    1.70851029   -0.09509351       7
Cr    -1.68465559    1.67857131   -0.07345101       8
Cr     1.70393206    0.01670167    1.72312842       9
Cr    -1.58442473    0.03210283    1.72981226      10
Ni    -1.74669744   -1.82871706   -0.06404043      11
Ni     0.03659579   -1.88423325    1.70045291      12
Cr     0.02461610    1.71379311   -1.94160792      13
Cr     1.68936506   -0.03892801   -1.89760454      14
Cr    -1.69521516   -0.03766074   -1.85710249      15
Co     1.81582784   -1.77895252   -0.09896749      16
Co     0.02071729   -1.76274121   -1.85519697      17
Co     0.00000000    0.00000000    0.00000000      18
          18
Lattice="  24.8920   0.0000   0.0000   0.0000  24.8920   0.0000   0.0000   0.0000  24.8920 " ConfE="      -5944.7216" DelE="          0.8690"
Ni     0.03270220    3.42804674   -0.08760610       1
Ni     0.00975510   -3.56474363   -0.14015837       2
Cr     0.03573736   -0.05472659    3.41031789       3
Co     3.68174805   -0.04996947   -0.13000883       4
Co    -3.57852973   -0.05033136   -0.08402907       5
Co     0.03512050   -0.03635014   -3.62417980       6
Ni     1.89352355    1.70855251   -0.13303953       7
Cr    -1.78898773    1.67195832   -0.15226355       8
Cr     1.92233071   -0.08495085    1.72326986       9
Cr    -1.88928101   -0.10353300    1.76556061      10
Ni    -1.84250221   -1.82839112   -0.05707801      11
Ni     0.01667802   -1.80886207    1.66176688      12
Cr     0.04024643    1.58138513   -1.83996491      13
Cr     1.90972309    0.02603201   -1.93467299      14
Cr    -1.88684689   -0.00559485   -1.89565661      15
Co     1.90831022   -1.76308440   -0.06407877      16
Co     0.02826099   -1.03566974   -1.30786416      17
Co    -0.00747844    0.66670566    0.78714088      18
          18
Lattice="  24.8920   0.0000   0.0000   0.0000  24.8920   0.0000   0.0000   0.0000  24.8920 " ConfE="      -5946.1845" DelE="         -0.5939"
Ni     0.03046264    3.50023487   -0.08882372       1
Ni     0.02432095   -3.62613371   -0.13992476       2
Cr     0.06698141   -0.11097109    3.46406728       3
Co     3.58410730   -0.06752548   -0.14495107       4
Co    -3.49347986   -0.06308618   -0.09421819       5
Co     0.04863388   -0.05160176   -3.60623308       6
Ni     1.79992910    1.71397140   -0.10621186       7
Cr    -1.71003031    1.68072371   -0.09601388       8
Cr     1.79622215   -0.09964606    1.67000859       9
Cr    -1.69306857   -0.06003928    1.70249256      10
Ni    -1.73003125   -1.84031324   -0.12895596      11
Ni     0.02889374   -1.87690822    1.69089161      12
Cr     0.03481255    1.77029942   -1.91460398      13
Cr     1.64384211   -0.06351335   -1.87726128      14
Cr    -1.63601295   -0.03623795   -1.85852619      15
Co     1.80521261   -1.79805978   -0.14653577      16
Co     0.02267347   -0.08403646   -0.12607450      17
Co     0.03800532    1.67735266    1.67340395      18
