          18
Lattice="  24.8920   0.0000   0.0000   0.0000  24.8920   0.0000   0.0000   0.0000  24.8920 " ConfE="      -5948.7214" DelE="          0.0000"
Co    -3.50224763   -0.00996881   -0.05007123       1
Ni     0.04274686    0.00302698    3.50162174       2
Co     3.61129307    0.01447460   -0.05859741       3
Co     0.02092381   -0.00050708   -3.56167480       4
Co     0.02514128   -3.46935098   -0.01015259       5
Co     0.02624248    3.50143490   -0.05090798       6
Cr    -1.84325861   -1.67276478   -0.05165107       7
Co    -1.79688815    1.67299997   -0.08092156       8
Cr    -0.04426127   -1.69954523    1.77015532       9
Ni    -0.00439945    1.74671560    1.73524274      10
Cr    -1.80047004    0.07663186   -1.78409356      11
Co     1.83578562   -0.00411545    1.72329366      12
Cr     1.84889114    0.00044317   -1.80733313      13
Ni     0.02735487   -1.72815329   -1.80347172      14
Co     0.01902571    1.72901229   -1.80595661      15
Cr     1.89139790   -1.70011539   -0.08461913      16
Co     1.84641010    1.74426502   -0.07417779      17
Ni     0.00000000    0.00000000    0.00000000      18
          18
Lattice="  24.8920   0.0000   0.0000   0.0000  24.8920   0.0000   0.0000   0.0000  24.8920 " ConfE="      -5947.9256" DelE="          0.7958"
Co    -3.50262001   -0.00162695   -0.05512291       1
Ni     0.03389467   -0.01094363    3.45621245       2
Co     3.62177422    0.02664169   -0.06302725       3
Co     0.01076808   -0.00312625   -3.56943771       4
Co     0.04584858   -3.51143320   -0.02134628       5
Co     0.02621936    3.53982343   -0.06367337       6
Cr    -1.90583323   -1.89285885   -0.18000126       7
Co    -1.82331342    1.82268718   -0.14907322       8
Cr     0.11028419   -1.87163164    1.79448435       9
Ni     0.04052358    1.83889679    1.73056140      10
Cr    -1.73287629    0.07830732   -1.69135638      11
Co     1.76062438   -0.01354595    1.65009871      12
Cr     1.74385040    0.04033864   -1.74811331      13
Ni     0.02472550   -1.70796250   -1.75643690      14
Co    -0.02072789    1.67147598   -1.76006490      15
Cr     1.83433409   -1.65869071   -0.06463891      16
Co     1.78515084    1.70405642   -0.08089158      17
Ni    -1.08862131   -0.08491402    0.99709959      18
          18
Lattice="  24.8920   0.0000   0.0000   0.0000  24.8920   0.0000   0.0000   0.0000  24.8920 " ConfE="      -5948.5268" DelE="          0.1946"
Co    -3.55212951    0.00174231   -0.06904712       1
Ni     0.05418516   -0.00345190    3.52829054       2
Co     3.63655705    0.02348547   -0.06236395       3
Co     0.02264923   -0.00154269   -3.58640835       4
Co     0.03778026   -3.50248500   -0.02141492       5
Co     0.03211246    3.51923049   -0.06151123       6
Cr    -1.79590099   -1.67786836   -0.08628453       7
Co    -1.76166778    1.67285188   -0.10387020       8
Cr     0.04025069   -1.68357219    1.67766104       9
Ni     0.02416857    1.74547855    1.70084512      10
Cr    -1.74924626    0.08904042   -1.74152702      11
Co     1.76749510   -0.01888653    1.65320731      12
Cr     1.79938032    0.04430049   -1.77555537      13
Ni     0.04043067   -1.67755176   -1.75590928      14
Co     0.00044871    1.65590350   -1.77074307      15
Cr     1.85178659   -1.65331055   -0.07402763      16
Co     1.81013678    1.70296861   -0.09421329      17
Ni    -1.74052561    0.01508620    1.71707662      18
