          18
Lattice="  24.8920   0.0000   0.0000   0.0000  24.8920   0.0000   0.0000   0.0000  24.8920 " ConfE="      -5938.3763" DelE="          0.0000"
Cr     0.06688080    0.03274325    3.46214575       1
Ni    -0.03326970    3.56841149   -0.05947081       2
Ni    -0.02215081    0.00463899   -3.57141810       3
Co     0.04761304   -3.60107109   -0.06891680       4
Co    -3.55575032   -0.01875307   -0.00105178       5
Cr     3.43931478    0.01544618   -0.01044045       6
Ni    -1.72834327   -0.02185190    1.75851503       7
Ni    -0.02464443    1.80067968   -1.81503109       8
Ni    -1.77718649    1.78561486   -0.01703632       9
Co    -1.69954281   -1.78473201   -0.02944308      10
Ni    -1.76699644    0.00358356   -1.77103883      11
Ni     1.73491413    1.79112524   -0.04297849      12
Co     1.67869423   -0.02500166    1.77025453      13
Co     1.72367027   -1.77802979    0.00208708      14
Cr    -0.00981379    1.80491861    1.80023201      15
Cr     0.00662780   -1.79429389   -1.77761964      16
Cr     1.75872813   -0.00053519   -1.83255848      17
Ni     0.00000000    0.00000000    0.00000000      18
          18
Lattice="  24.8920   0.0000   0.0000   0.0000  24.8920   0.0000   0.0000   0.0000  24.8920 " ConfE="      -5937.0838" DelE="          1.2925"
Cr     0.04968240   -0.03073397    3.45376415       1
Ni     0.00905085    3.49862879   -0.06963679       2
Ni    -0.03536445   -0.02270861   -3.60142435       3
Co     0.04838121   -3.55612006   -0.04715572       4
Co    -3.59894089    0.00013805   -0.01870892       5
Cr     3.42959624    0.10121791   -0.03757185       6
Ni    -1.87516208    0.05403175    1.78949505       7
Ni    -0.05896556    1.83196649   -1.95145658       8
Ni    -1.72598823    1.74680361   -0.01689498       9
Co    -1.83674672   -1.78489565   -0.08658138      10
Ni    -1.74387912    0.01432278   -1.74880350      11
Ni     1.02000825    1.11978435   -0.00041804      12
Co     1.95797680   -0.01608671    1.87427219      13
Co     1.93131785   -1.84084158   -0.03287455      14
Cr    -0.05032331    1.76070055    1.92637943      15
Cr    -0.01125609   -1.69704890   -1.59557641      16
Cr     1.75121983   -0.05498422   -1.89769266      17
Ni     0.03290842   -0.99704224    1.02229160      18
          18
Lattice="  24.8920   0.0000   0.0000   0.0000  24.8920   0.0000   0.0000   0.0000  24.8920 " ConfE="      -5937.8393" DelE="          0.5370"
Cr     0.06111257    0.02538317    3.55296333       1
Ni     0.03302045    3.48916520   -0.07064694       2
Ni    -0.03640681    0.00661055   -3.63684452       3
Co     0.05275920   -3.62403622   -0.07769539       4
Co    -3.56739144   -0.01114988   -0.00786365       5
Cr     3.38381429    0.11275380   -0.01811033       6
Ni    -1.72627249    0.01093990    1.75232797       7
Ni    -0.04832129    1.84469200   -1.96575656       8
Ni    -1.71049975    1.74201943   -0.02155633       9
Co    -1.67032644   -1.72240161   -0.06795223      10
Ni    -1.73693475    0.02115102   -1.77837889      11
Ni     0.87992912    0.93979665   -0.01791923      12
Co     1.75321832   -0.06028168    1.91795846      13
Co     1.69049560   -1.69589078   -0.04830564      14
Cr    -0.03041899    1.81558385    1.92792012      15
Cr     0.01359036   -1.70198491   -1.72148113      16
Cr     1.78700248    0.01083680   -1.97229285      17
Ni    -0.02155701   -1.75245455    1.74992418      18
