          18
Lattice="  24.8920   0.0000   0.0000   0.0000  24.8920   0.0000   0.0000   0.0000  24.8920 " ConfE="      -5950.0025" DelE="          0.0000"
Ni    -0.00421124   -3.53910447   -0.06094543       1
Ni    -3.53449408   -0.00951218   -0.00223576       2
Co    -0.11195571   -0.01878225   -3.57806873       3
Co     3.53593395   -0.06821414   -0.02735455       4
Cr    -0.03804483    0.02417959    3.57077896       5
Cr     0.02130343    3.55463206   -0.02036449       6
Ni     1.65990669   -0.07537231   -1.81901751       7
Ni    -1.75790634   -1.79263106   -0.03589014       8
Ni    -1.75207503   -0.03719761   -1.77310454       9
Co     1.70404889   -1.77107116   -0.05902269      10
Ni    -0.02974290   -1.77686611    1.77929971      11
Ni    -1.76703175    1.79367437   -0.00000574      12
Cr     1.76286797    1.72455561   -0.06114974      13
Cr     1.78150129   -0.01568671    1.72241143      14
Co     0.04740336    1.75159241    1.77243659      15
Co    -0.01140620    1.78298478   -1.77588304      16
Co    -1.77363012   -0.00376012    1.78695216      17
Cr     0.00000000    0.00000000    0.00000000      18
          18
Lattice="  24.8920   0.0000   0.0000   0.0000  24.8920   0.0000   0.0000   0.0000  24.8920 " ConfE="      -5949.0239" DelE="          0.9786"
Ni    -0.00370095   -3.50854724   -0.06649789       1
Ni    -3.59017980    0.01084804    0.02257790       2
Co    -0.09134571   -0.04723765   -3.52133986       3
Co     3.61456500   -0.04844093   -0.00183552       4
Cr    -0.05977412    0.00606000    3.56276831       5
Cr     0.03264629    3.52803587   -0.02576515       6
Ni     1.90095044   -0.02236771   -1.85155758       7
Ni    -1.88236625   -1.79267194    0.01054090       8
Ni    -1.91887850    0.01833983   -1.79953142       9
Co     1.83723012   -1.78131723    0.00128617      10
Ni    -0.04337716   -1.74404544    1.69341738      11
Ni    -1.73981645    1.74705501   -0.00353976      12
Cr     1.63751153    1.57170722   -0.04915983      13
Cr     1.70368790   -0.04691371    1.65525584      14
Co     0.05683029    1.69339090    1.74688193      15
Co     0.01652247    1.64252762   -1.73006152      16
Co    -1.76971306   -0.01245906    1.76756581      17
Cr     0.01288677   -1.03341811   -1.07455970      18
          18
Lattice="  24.8920   0.0000   0.0000   0.0000  24.8920   0.0000   0.0000   0.0000  24.8920 " ConfE="      -5949.7853" DelE="          0.2172"
Ni    -0.02118573   -3.57012901   -0.01399220       1
Ni    -3.54798413   -0.00484405    0.00105389       2
Co    -0.08313949   -0.02320876   -3.59527893       3
Co     3.56373289   -0.06321838   -0.01234910       4
Cr    -0.04427984    0.02217088    3.58357148       5
Cr     0.02475957    3.56605770   -0.02548171       6
Ni     1.69424700   -0.02949440   -1.77918427       7
Ni    -1.75004180   -1.76276288   -0.02760090       8
Ni    -1.73827196   -0.01723399   -1.75987057       9
Co     1.69949331   -1.73656908   -0.01816782      10
Ni    -0.03640345   -1.74204279    1.74780392      11
Ni    -1.73925974    1.77100928    0.00094798      12
Cr     1.72557039    1.70535906   -0.02885981      13
Cr     1.73293783    0.00068833    1.71144304      14
Co     0.06321824    1.69944895    1.72770903      15
Co     0.00892343    1.73951436   -1.74080042      16
Co    -1.77136750   -0.00585714    1.78872862      17
Cr     0.05865688   -1.77807024   -1.80478756      18
