          18
Lattice="  24.8920   0.0000   0.0000   0.0000  24.8920   0.0000   0.0000   0.0000  24.8920 " ConfE="      -5937.7872" DelE="          0.0000"
Ni    -3.49964108   -0.01288592   -0.01612831       1
Co    -0.00047334    0.02708381   -3.44816815       2
Ni     3.61983675   -0.00561805    0.05264562       3
Cr     0.01317547   -0.04076497    3.63161341       4
Co     0.05336051   -3.57587457    0.01636415       5
Co     0.04375056    3.51222323   -0.00260397       6
Co    -1.70426742   -1.76849623   -0.05242834       7
Cr    -1.72612597    1.72308377   -0.13289665       8
Co     0.03929332   -1.77445726   -1.75612629       9
Cr     0.14574629    1.83773689   -1.70646404      10
Ni    -1.76121397   -0.01851944    1.80660455      11
Cr     1.85481262   -0.01617968   -1.74656889      12
Cr     1.83278747   -0.03874277    1.83311541      13
Ni     0.01024882   -1.78422836    1.81597662      14
Ni     0.04135489    1.73732129    1.79112161      15
Cr     1.74764829   -1.76571340   -0.00633570      16
Co     1.82928862    1.74470171    0.02430309      17
Ni     0.00000000    0.00000000    0.00000000      18
          18
Lattice="  24.8920   0.0000   0.0000   0.0000  24.8920   0.0000   0.0000   0.0000  24.8920 " ConfE="      -5937.2898" DelE="          0.4973"
Ni    -3.47225032   -0.02375409   -0.01632322       1
Co     0.00114305    0.01720077   -3.42605968       2
Ni     3.61306713   -0.00347492    0.04567320       3
Cr     0.00466885   -0.03960373    3.63745229       4
Co     0.06422521   -3.62783796    0.03025430       5
Co     0.04325730    3.55510820    0.00867445       6
Co    -1.70897413   -1.92865662   -0.01542450       7
Cr    -1.75852626    1.87735182   -0.05872985       8
Co     0.10201752   -1.97772199   -1.81798567       9
Cr     0.19712152    2.00147047   -1.74937159      10
Ni    -1.70293367   -0.02360329    1.71743263      11
Cr     1.80345004   -0.00227163   -1.71334889      12
Cr     1.75998426   -0.03141355    1.76148975      13
Ni     0.00339585   -1.79758652    1.81758627      14
Ni     0.03434468    1.74503145    1.78166300      15
Cr     1.63086517   -1.68545699   -0.01049529      16
Co     1.77464448    1.72197184    0.01158973      17
Ni    -0.60509218    0.01530133   -0.78114535      18
          18
Lattice="  24.8920   0.0000   0.0000   0.0000  24.8920   0.0000   0.0000   0.0000  24.8920 " ConfE="      -5937.8591" DelE="         -0.0719"
Ni    -3.53528818   -0.01577950    0.01992056       1
Co     0.04040414    0.01696190   -3.52315535       2
Ni     3.63474960   -0.00480063    0.05216617       3
Cr     0.01040016   -0.04654464    3.65727105       4
Co     0.06272484   -3.60028408    0.02451056       5
Co     0.04930100    3.52754138    0.00923167       6
Co    -1.66813457   -1.77376185   -0.01204831       7
Cr    -1.67383825    1.74489137   -0.01903917       8
Co     0.08298795   -1.75327978   -1.71587533       9
Cr     0.13350435    1.79934145   -1.67541253      10
Ni    -1.72885751   -0.02512227    1.77111939      11
Cr     1.78884845   -0.01450488   -1.69814675      12
Cr     1.82118031   -0.05087456    1.81037143      13
Ni     0.01884679   -1.76719914    1.80657999      14
Ni     0.05215147    1.69502319    1.77834833      15
Cr     1.69684792   -1.71176355    0.01534664      16
Co     1.77897824    1.68812144    0.01967161      17
Ni    -1.69558077    0.01156982   -1.70508952      18
