          18
Lattice="  24.8920   0.0000   0.0000   0.0000  24.8920   0.0000   0.0000   0.0000  24.8920 " ConfE="      -5923.5229" DelE="          0.0000"
Ni    -0.01619975   -0.00692663    3.48971881       1
Ni     3.47595233   -0.01030866   -0.01295158       2
Ni    -0.03797118   -0.00836711   -3.61805573       3
Ni    -0.01697746   -3.55059158   -0.03267105       4
Co    -3.54316793   -0.00339165   -0.06095588       5
Co    -0.02103107    3.52896030   -0.07464543       6
Co     0.00340017    1.74865986    1.74251469       7
Co     1.75914818    1.75945250   -0.00319228       8
Ni    -1.80309454    1.76307784   -0.02392806       9
Cr     1.72600337   -1.77962492   -0.05013398      10
Co     0.02855367   -1.75821946    1.72348421      11
Ni    -0.05381386   -1.76526322   -1.81563273      12
Cr    -1.82235085   -0.04699732    1.78364052      13
Co     1.73631050    0.01020757   -1.85349572      14
Cr    -1.82847577    0.04229744   -1.84010836      15
Cr    -1.78498670   -1.75797397    0.00623943      16
Co    -0.04042240    1.75958067   -1.83036402      17
Ni     0.00000000    0.00000000    0.00000000      18
          18
Lattice="  24.8920   0.0000   0.0000   0.0000  24.8920   0.0000   0.0000   0.0000  24.8920 " ConfE="      -5922.9124" DelE="          0.6105"
Ni    -0.00222535   -0.00831926    3.45708141       1
Ni     3.44589215   -0.00224284   -0.01903262       2
Ni    -0.03720274   -0.01188468   -3.61119429       3
Ni    -0.03339637   -3.62156517   -0.04880698       4
Co    -3.53997523    0.00168037   -0.04795426       5
Co    -0.06253063    3.60046769   -0.09502133       6
Co    -0.01557602    1.90452226    1.76030395       7
Co     1.76806533    1.95370083   -0.10557551       8
Ni    -1.75933227    1.75672407   -0.00373363       9
Cr     1.74007255   -1.93871895   -0.15594095      10
Co    -0.05534017   -1.95594634    1.77194063      11
Ni    -0.05186986   -1.76539018   -1.79478707      12
Cr    -1.66365784   -0.02900085    1.68383882      13
Co     1.67004020    0.02459052   -1.76757486      14
Cr    -1.76253809    0.05171421   -1.74894941      15
Cr    -1.67951631   -1.70346187    0.01667543      16
Co    -0.05080892    1.74096652   -1.79711326      17
Ni     1.05505189   -0.04267614    0.97555425      18
          18
Lattice="  24.8920   0.0000   0.0000   0.0000  24.8920   0.0000   0.0000   0.0000  24.8920 " ConfE="      -5923.3360" DelE="          0.1869"
Ni    -0.03560227    0.00001714    3.53095311       1
Ni     3.53673089   -0.00450272   -0.04324260       2
Ni    -0.04017948   -0.00955083   -3.63193518       3
Ni    -0.02183463   -3.56443850   -0.03919536       4
Co    -3.57294661   -0.00364981   -0.06016924       5
Co    -0.04257602    3.55204311   -0.08486949       6
Co    -0.03484753    1.74540279    1.71338377       7
Co     1.71055401    1.76069560   -0.06355785       8
Ni    -1.78264755    1.72613048   -0.03104244       9
Cr     1.69207450   -1.75104422   -0.10914442      10
Co    -0.04396628   -1.74856364    1.67877617      11
Ni    -0.06614074   -1.74138969   -1.80213018      12
Cr    -1.75710896   -0.03632628    1.73106060      13
Co     1.68562558    0.00685543   -1.78121356      14
Cr    -1.81143166    0.05015539   -1.81470528      15
Cr    -1.71947862   -1.68068584   -0.00612590      16
Co    -0.06630103    1.73371870   -1.81857359      17
Ni     1.69627414   -0.01353270    1.67326873      18
