          18
Lattice="  24.8920   0.0000   0.0000   0.0000  24.8920   0.0000   0.0000   0.0000  24.8920 " ConfE="      -5934.6642" DelE="          0.0000"
Ni    -0.03032213    0.01367704   -3.47864504       1
Cr     3.45481212   -0.01421902    0.02680404       2
Co    -0.06763238    3.55139564    0.00919895       3
Co    -0.01673736   -3.52647568    0.04519810       4
Cr    -3.63838472    0.00177800    0.08040472       5
Cr    -0.08923526   -0.01150788    3.63105618       6
Ni     1.71695109    1.76084931    0.04728021       7
Ni    -0.01014749   -1.75177995   -1.74664691       8
Co     1.75464920   -1.71213205    0.01906186       9
Cr    -0.00664608    1.75323487   -1.71503328      10
Ni    -1.86735513   -0.01130189   -1.73791650      11
Cr     1.72880980   -0.00583770    1.87322297      12
Cr    -0.06970801    1.80988892    1.81231876      13
Cr    -1.79404180   -1.77910143    0.07546264      14
Co    -0.01732218   -1.76320354    1.82514696      15
Co    -1.85804893    1.75456275    0.03649604      16
Cr    -1.82999173   -0.00171417    1.83528364      17
Cr     0.00000000    0.00000000    0.00000000      18
          18
Lattice="  24.8920   0.0000   0.0000   0.0000  24.8920   0.0000   0.0000   0.0000  24.8920 " ConfE="      -5934.0020" DelE="          0.6621"
Ni    -0.03511891    0.02919776   -3.39493437       1
Cr     3.48624554   -0.00343151    0.08532340       2
Co    -0.06424795    3.63301663    0.03114977       3
Co    -0.02822255   -3.62023391    0.06341152       4
Cr    -3.63439379    0.00249174    0.05069016       5
Cr    -0.07924154   -0.00094535    3.59314902       6
Ni     1.78579243    1.89050432    0.07052395       7
Ni    -0.09260828   -1.94272178   -1.77311908       8
Co     1.75615346   -1.85400760    0.06498717       9
Cr    -0.07752989    1.91139921   -1.64745201      10
Ni    -1.79465528   -0.00714429   -1.68218415      11
Cr     1.68434846   -0.00496141    1.81708684      12
Cr    -0.05026134    1.72501986    1.61174684      13
Cr    -1.71190677   -1.74690265    0.06454246      14
Co    -0.01278233   -1.75419800    1.76865371      15
Co    -1.84215991    1.76279481    0.03393175      16
Cr    -1.75052706   -0.00947678    1.75524316      17
Cr     0.73454289   -0.03672757   -0.80007730      18
          18
Lattice="  24.8920   0.0000   0.0000   0.0000  24.8920   0.0000   0.0000   0.0000  24.8920 " ConfE="      -5934.4980" DelE="          0.1662"
Ni    -0.04333465    0.01210264   -3.48474926       1
Cr     3.53354267    0.00429104    0.08779345       2
Co    -0.07117330    3.60210492    0.01370516       3
Co    -0.03079645   -3.58886048    0.05341888       4
Cr    -3.63108689   -0.00003243    0.09163368       5
Cr    -0.06542945   -0.01012969    3.62861248       6
Ni     1.68918937    1.78858438    0.06480625       7
Ni    -0.05426207   -1.77069351   -1.69958375       8
Co     1.72857816   -1.75390628    0.04468390       9
Cr    -0.07047794    1.76370456   -1.64976160      10
Ni    -1.82551802   -0.01254909   -1.69516168      11
Cr     1.59209008   -0.04542955    1.70158446      12
Cr    -0.07009103    1.79732535    1.75183391      13
Cr    -1.78855543   -1.77120687    0.08238388      14
Co    -0.02874390   -1.77490909    1.79530205      15
Co    -1.83231713    1.74687810    0.04915626      16
Cr    -1.69087593   -0.01881938    1.76215460      17
Cr     1.68312199   -0.01731892   -1.58570745      18
