          18
Lattice="  24.8920   0.0000   0.0000   0.0000  24.8920   0.0000   0.0000   0.0000  24.8920 " ConfE="      -5940.9836" DelE="          0.0000"
Cr    -0.03388692   -0.09338847   -3.15159030       1
Cr     0.03870988   -3.53612039    0.07397583       2
Co    -0.00720559    3.58645722    0.17405409       3
Co    -0.00765981    0.06224683    3.74607681       4
Cr    -3.53900332   -0.01481645    0.24154455       5
Cr     3.52062441    0.02652188    0.14730158       6
Ni    -1.75366698   -1.77165472    0.13542408       7
Ni     1.71881333   -1.76483197    0.11097750       8
Co    -1.83955122    0.01089418   -1.58191753       9
Co     1.77972478    0.04115553   -1.63488238      10
Ni    -1.81279978    1.81583740    0.19803167      11
Co    -0.02242175    1.84556907   -1.60651799      12
Cr    -0.01336845   -1.72672151    1.97423419      13
Cr    -0.02144775    1.79635805    1.89371581      14
Co     1.76462866    1.83130052    0.14693419      15
Cr    -1.76878822    0.01820467    1.99515523      16
Cr     1.73947995    0.03996425    1.87548229      17
Cr     0.00000000    0.00000000    0.00000000      18
          18
Lattice="  24.8920   0.0000   0.0000   0.0000  24.8920   0.0000   0.0000   0.0000  24.8920 " ConfE="      -5940.4148" DelE="          0.5688"
Cr    -0.04767546   -0.02640780   -3.25650181       1
Cr     0.01592326   -3.54627693    0.08555871       2
Co    -0.01012842    3.60251407    0.14939035       3
Co     0.00140388    0.04377650    3.72782283       4
Cr    -3.58750182    0.00234720    0.29358468       5
Cr     3.57532568    0.05204415    0.19524206       6
Ni    -1.87110545   -1.79164509    0.18139892       7
Ni     1.87171334   -1.83876160    0.16267639       8
Co    -1.95633059    0.04641775   -1.55466796       9
Co     1.92408706    0.11837038   -1.63771224      10
Ni    -1.75937438    1.77427089    0.20099754      11
Co    -0.01907219    1.74313114   -1.59044352      12
Cr    -0.01258946   -1.79154338    1.90194275      13
Cr     0.00525859    1.83444169    1.88966765      14
Co     1.72500662    1.80305150    0.12857053      15
Cr    -1.63455285    0.01257022    1.90446235      16
Cr     1.54781922    0.01996697    1.67500726      17
Cr     0.02787275   -0.88413280   -0.90128888      18
          18
Lattice="  24.8920   0.0000   0.0000   0.0000  24.8920   0.0000   0.0000   0.0000  24.8920 " ConfE="      -5940.9506" DelE="          0.0330"
Cr    -0.01096884    0.03432635   -3.36076105       1
Cr     0.03055937   -3.55951228    0.13605653       2
Co    -0.00442895    3.58766930    0.18284019       3
Co     0.00521902    0.06077034    3.78559738       4
Cr    -3.58722649   -0.00448277    0.23529392       5
Cr     3.56116443    0.03641489    0.14718073       6
Ni    -1.77930083   -1.72139406    0.17861899       7
Ni     1.74344750   -1.72683463    0.15570872       8
Co    -1.82931676    0.03299139   -1.58585708       9
Co     1.76830403    0.06838262   -1.60963731      10
Ni    -1.79337281    1.76495008    0.20923782      11
Co    -0.01985779    1.75768344   -1.55895315      12
Cr    -0.01094317   -1.54483883    1.87321447      13
Cr    -0.02429511    1.66530664    1.83927398      14
Co     1.75165211    1.79061488    0.17462637      15
Cr    -1.81482340    0.01681317    2.02963303      16
Cr     1.77723143    0.06802456    1.87423343      17
Cr    -0.01667089   -1.58719339   -1.54503273      18
