          18
Lattice="  24.8920   0.0000   0.0000   0.0000  24.8920   0.0000   0.0000   0.0000  24.8920 " ConfE="      -5933.4298" DelE="          0.0000"
Cr    -3.47152382    0.00950830   -0.01209775       1
Co     0.04074940   -0.03734243    3.44301860       2
Ni     3.65135576   -0.03115883   -0.02424383       3
Ni     0.05025711    0.02271390   -3.59926632       4
Ni     0.05997378   -3.57366367   -0.03897268       5
Co     0.07606926    3.59915091   -0.04599732       6
Cr    -1.72500792   -1.71776955   -0.03083777       7
Cr    -1.70197622    1.74683633    0.00611652       8
Cr     0.04205267   -1.75864923    1.72626806       9
Cr     0.05629786    1.76712706    1.71056404      10
Co    -1.72399516    0.01248712   -1.83972782      11
Cr     1.86631425   -0.02032779    1.70040601      12
Cr     1.80418264    0.03671428   -1.77211778      13
Co     0.06166226   -1.77826366   -1.82862896      14
Ni     0.03255070    1.82338562   -1.80453877      15
Cr     1.82862378   -1.77246125   -0.05980229      16
Co     1.83803576    1.80362198   -0.02696911      17
Co     0.00000000    0.00000000    0.00000000      18
          18
Lattice="  24.8920   0.0000   0.0000   0.0000  24.8920   0.0000   0.0000   0.0000  24.8920 " ConfE="      -5933.0320" DelE="          0.3978"
Cr    -3.39393303    0.00770602   -0.00818481       1
Co     0.03516176   -0.03797917    3.38364978       2
Ni     3.66993437   -0.02191705   -0.02694488       3
Ni     0.04856008    0.02912307   -3.58307577       4
Ni     0.05954366   -3.61559970   -0.04319981       5
Co     0.07101690    3.65462470   -0.05897204       6
Cr    -1.82820649   -1.93308008   -0.13121442       7
Cr    -1.71112360    1.89153331   -0.06355239       8
Cr     0.11605415   -1.89477229    1.78697000       9
Cr     0.04020951    1.85994608    1.69906637      10
Co    -1.70700009    0.01616201   -1.79320334      11
Cr     1.78084093    0.00419921    1.55931722      12
Cr     1.69584089    0.07436786   -1.60657782      13
Co     0.03859913   -1.73884722   -1.76292105      14
Ni     0.02027654    1.84131007   -1.79196151      15
Cr     1.75160620   -1.75252316   -0.06068145      16
Co     1.82959673    1.86097499   -0.02565056      17
Co    -0.63926993   -0.12174798    0.55271009      18
          18
Lattice="  24.8920   0.0000   0.0000   0.0000  24.8920   0.0000   0.0000   0.0000  24.8920 " ConfE="      -5933.5797" DelE="         -0.1499"
Cr    -3.53694714    0.00687641   -0.05776848       1
Co     0.09024752   -0.03022663    3.48614006       2
Ni     3.67377527   -0.03108631   -0.03287408       3
Ni     0.05963314    0.02720988   -3.59706594       4
Ni     0.06248297   -3.61478066   -0.05636996       5
Co     0.07146926    3.62836882   -0.05595155       6
Cr    -1.65931860   -1.69972318   -0.08515135       7
Cr    -1.68097831    1.74059992   -0.05395169       8
Cr     0.08247761   -1.78023065    1.68836662       9
Cr     0.07149467    1.77718509    1.66945832      10
Co    -1.67686569    0.01225178   -1.77240524      11
Cr     1.76469558   -0.01922739    1.54322696      12
Cr     1.76043712    0.06432321   -1.67874629      13
Co     0.07189407   -1.76212691   -1.80871393      14
Ni     0.03819417    1.82438217   -1.79262697      15
Cr     1.77960844   -1.76884818   -0.10443143      16
Co     1.82065263    1.81863676   -0.03723035      17
Co    -1.65126530   -0.02732543    1.65384128      18
