          18
Lattice="  24.8920   0.0000   0.0000   0.0000  24.8920   0.0000   0.0000   0.0000  24.8920 " ConfE="      -5929.3181" DelE="          0.0000"
Co     3.50436794   -0.10392563   -0.04993714       1
Co    -0.02476713    3.46741882    0.00869279       2
Ni    -0.00250817   -0.08753584   -3.54018795       3
Cr    -0.06091551   -0.01048014    3.53960338       4
Co    -0.06444695   -3.63209785    0.02140210       5
Cr    -3.59161237   -0.10602884   -0.03254554       6
Ni     1.72482416    0.01929508    1.71540074       7
Cr     1.77476354    0.02943453   -1.69620105       8
Co     0.02092330    1.71788329   -1.76272432       9
Cr    -0.00422474    1.88540304    1.68563834      10
Ni     0.01919838   -1.85239248   -1.77422050      11
Ni    -1.79192627   -0.07044799   -1.75734142      12
Co     1.76170076   -1.87971069   -0.02366641      13
Co    -1.82777387    1.68692852    0.01841269      14
Co    -0.05217189   -1.79693804    1.75564453      15
Cr    -1.79803437   -0.00945682    1.75657648      16
Cr    -1.76580144   -1.88888769   -0.00569541      17
Ni     0.00000000    0.00000000    0.00000000      18
          18
Lattice="  24.8920   0.0000   0.0000   0.0000  24.8920   0.0000   0.0000   0.0000  24.8920 " ConfE="      -5928.6602" DelE="          0.6579"
Co     3.48274652   -0.08877945   -0.02449339       1
Co    -0.04003746    3.47679046   -0.00484772       2
Ni    -0.03923598   -0.11076033   -3.60559223       3
Cr    -0.07079452   -0.05771967    3.60225600       4
Co    -0.05445629   -3.64330140    0.02249402       5
Cr    -3.59239892   -0.09973909   -0.04334741       6
Ni     1.75330835   -0.07917697    1.88170628       7
Cr     1.75731174   -0.07414110   -1.83343281       8
Co    -0.05489456    1.76048148   -1.97407344       9
Cr    -0.08225999    1.85500894    1.95955882      10
Ni     0.01461800   -1.82998301   -1.75845770      11
Ni    -1.74803776   -0.07421316   -1.73153582      12
Co     1.73789503   -1.82206445   -0.02113455      13
Co    -1.72174021    1.63882069    0.02552336      14
Co    -0.05253027   -1.74967095    1.71606420      15
Cr    -1.71435585   -0.01252752    1.68081987      16
Cr    -1.72749430   -1.84320191    0.00738641      17
Ni     0.91500785    1.02567155    0.03020463      18
          18
Lattice="  24.8920   0.0000   0.0000   0.0000  24.8920   0.0000   0.0000   0.0000  24.8920 " ConfE="      -5929.3256" DelE="         -0.0075"
Co     3.55358261   -0.11600895   -0.05748260       1
Co    -0.04593517    3.53724200    0.00598517       2
Ni    -0.02836144   -0.10040962   -3.56184189       3
Cr    -0.08217017   -0.02584300    3.57617210       4
Co    -0.06267661   -3.65180710    0.01871713       5
Cr    -3.61547569   -0.11072850   -0.03218858       6
Ni     1.67498560   -0.01961840    1.71084642       7
Cr     1.67726566   -0.03968375   -1.69914864       8
Co    -0.00397618    1.68019392   -1.75542547       9
Cr    -0.07504001    1.80029580    1.70988888      10
Ni    -0.00967134   -1.86498413   -1.76601004      11
Ni    -1.75278644   -0.09865077   -1.70005064      12
Co     1.73288978   -1.81627650   -0.05601314      13
Co    -1.73319233    1.63471697    0.04648025      14
Co    -0.07327368   -1.75046646    1.69742344      15
Cr    -1.75925927   -0.02998338    1.70235624      16
Cr    -1.75991205   -1.88006593    0.01370301      17
Ni     1.72048832    1.71332822   -0.00278276      18
