          18
Lattice="  24.8920   0.0000   0.0000   0.0000  24.8920   0.0000   0.0000   0.0000  24.8920 " ConfE="      -5938.2141" DelE="          0.0000"
Ni    -0.00734567   -3.52039588    0.03102639       1
Ni    -0.01621764    0.01897053    3.50408648       2
Ni     0.01009544    3.57466716   -0.01221867       3
Ni     3.55724121    0.01315569    0.00074862       4
Ni    -3.55714281   -0.02408260   -0.01413126       5
Cr    -0.07367634   -0.00777819   -3.55057804       6
Ni    -1.75633171   -1.79667440   -0.00768402       7
Ni    -1.77256600    0.00838716    1.72770083       8
Ni    -0.00628471    1.78115056   -1.77056472       9
Co     1.76603495   -1.74327261    0.00816326      10
Co     1.74774689    0.01980194    1.77749038      11
Co    -0.00949693   -1.76042058   -1.83096340      12
Co     1.77083764   -0.00252134   -1.81679552      13
Co    -1.80107023    0.03065676   -1.80728454      14
Co     0.01569678    1.80638753    1.73738648      15
Cr     1.79384840    1.76322962   -0.00901092      16
Cr    -1.82266625    1.80899909   -0.02496860      17
Ni     0.00000000    0.00000000    0.00000000      18
          18
Lattice="  24.8920   0.0000   0.0000   0.0000  24.8920   0.0000   0.0000   0.0000  24.8920 " ConfE="      -5937.4630" DelE="          0.7511"
Ni    -0.00818726   -3.47517061    0.00762540       1
Ni    -0.03032860    0.01050155    3.45574753       2
Ni     0.01141812    3.57567982   -0.00376748       3
Ni     3.62977475    0.02760166   -0.01108172       4
Ni    -3.62494235   -0.02193688   -0.02685249       5
Cr    -0.07428539   -0.04490271   -3.55156979       6
Ni    -1.91848103   -1.82887504   -0.08234305       7
Ni    -1.91896652    0.06274403    1.74501962       8
Ni    -0.01127190    1.71321030   -1.70910952       9
Co     1.96418400   -1.78816637   -0.10079198      10
Co     1.90582027    0.10514875    1.77033531      11
Co    -0.00691641   -1.72634483   -1.77283971      12
Co     1.76698400   -0.00254860   -1.77659573      13
Co    -1.80066287    0.01514889   -1.76823102      14
Co     0.01132356    1.72828068    1.66600416      15
Cr     1.74692198    1.69310309    0.00166135      16
Cr    -1.80340067    1.76241108   -0.02927995      17
Ni     0.01598184   -0.96208305    0.90368322      18
          18
Lattice="  24.8920   0.0000   0.0000   0.0000  24.8920   0.0000   0.0000   0.0000  24.8920 " ConfE="      -5938.1228" DelE="          0.0913"
Ni    -0.00543051   -3.56010655   -0.01729299       1
Ni    -0.01335422    0.04286514    3.51713048       2
Ni     0.00897236    3.60185218   -0.01209002       3
Ni     3.58667689    0.01852146   -0.00291901       4
Ni    -3.58161920   -0.02139889   -0.01683133       5
Cr    -0.07990567   -0.01884511   -3.55289967       6
Ni    -1.77134443   -1.77870127   -0.05494241       7
Ni    -1.76653911    0.02772024    1.68196341       8
Ni    -0.00477626    1.73786495   -1.70976442       9
Co     1.77605140   -1.71398555   -0.04106844      10
Co     1.73830431    0.08711666    1.69430832      11
Co    -0.00310460   -1.72996774   -1.80010292      12
Co     1.75588075    0.00909432   -1.78384219      13
Co    -1.79150355    0.03679502   -1.78353372      14
Co     0.00368400    1.76665756    1.66536549      15
Cr     1.75152704    1.72873733    0.01251485      16
Cr    -1.81762831    1.80763833   -0.04141705      17
Ni     0.00870880   -1.73026133    1.68101073      18
