          18
Lattice="  24.8920   0.0000   0.0000   0.0000  24.8920   0.0000   0.0000   0.0000  24.8920 " ConfE="      -5943.6442" DelE="          0.0000"
Ni    -0.01268801    0.01991176   -3.47202777       1
Ni    -0.05206276    3.57885344    0.02798785       2
Ni     3.41388387    0.02641044   -0.00247190       3
Ni    -0.05632103   -3.52466684    0.02477092       4
Ni    -0.04555046    0.03015179    3.58344982       5
Ni    -3.63454575    0.00573531    0.03787938       6
Ni    -0.01036048    1.76038149   -1.74603665       7
Cr     1.65747468    1.77440502    0.05530717       8
Cr    -1.87194625   -0.01501976   -1.75772531       9
Cr    -1.76283235    1.70618607    0.01239220      10
Co    -0.01862915   -1.73059384   -1.71424715      11
Co    -0.08114149    1.76873736    1.76026862      12
Cr     1.77635928   -1.78839193    0.00876133      13
Co     1.71838310    0.00160306    1.81080460      14
Cr     0.02716214   -1.73865093    1.75947492      15
Cr    -1.82253846   -1.70295009    0.00547676      16
Co    -1.82816597   -0.02210183    1.77511841      17
Co     0.00000000    0.00000000    0.00000000      18
          18
Lattice="  24.8920   0.0000   0.0000   0.0000  24.8920   0.0000   0.0000   0.0000  24.8920 " ConfE="      -5942.6964" DelE="          0.9478"
Ni    -0.00703112    0.03197716   -3.45372393       1
Ni    -0.07725418    3.62577819    0.03563937       2
Ni     3.46850442    0.04323917    0.04154160       3
Ni    -0.06269586   -3.56827182    0.03261294       4
Ni    -0.04166150    0.02242760    3.57708902       5
Ni    -3.63482405    0.00726461    0.03753609       6
Ni    -0.03938957    1.84540266   -1.74903672       7
Cr     1.64358141    1.89300673    0.11197516       8
Cr    -1.79314533   -0.00584799   -1.73496088       9
Cr    -1.65127069    1.58840792    0.02054892      10
Co    -0.09670942   -1.84374697   -1.73001338      11
Co    -0.07382897    1.73129773    1.70380703      12
Cr     1.84345366   -1.94571577    0.06255374      13
Co     1.67624819   -0.00412865    1.71031031      14
Cr     0.07097216   -1.67586210    1.65562057      15
Cr    -1.72679908   -1.62657067   -0.00132202      16
Co    -1.81039144   -0.04108865    1.75834719      17
Co     1.21645750   -0.06534449   -1.02066561      18
          18
Lattice="  24.8920   0.0000   0.0000   0.0000  24.8920   0.0000   0.0000   0.0000  24.8920 " ConfE="      -5943.0630" DelE="          0.5812"
Ni    -0.04573319    0.02314539   -3.52228426       1
Ni    -0.06212774    3.57969399    0.03170370       2
Ni     3.49307617    0.01310376    0.04269030       3
Ni    -0.06344614   -3.53519351    0.03085244       4
Ni    -0.04972397    0.03258803    3.60518013       5
Ni    -3.64648568    0.00151944    0.03996317       6
Ni    -0.04939469    1.76286790   -1.73436408       7
Cr     1.60394929    1.70021655    0.06377399       8
Cr    -1.84231538   -0.00550230   -1.75823893       9
Cr    -1.68834616    1.59236012    0.03120296      10
Co    -0.07270432   -1.69928226   -1.67140198      11
Co    -0.08442524    1.72591776    1.71559318      12
Cr     1.68229431   -1.71754373    0.02627023      13
Co     1.68184537   -0.00172038    1.75214916      14
Cr     0.00780946   -1.70970459    1.75741101      15
Cr    -1.73359514   -1.61593981    0.00893354      16
Co    -1.81734379   -0.02920280    1.76146881      17
Co     1.67968150    0.00803211   -1.66642398      18
