          18
Lattice="  24.8920   0.0000   0.0000   0.0000  24.8920   0.0000   0.0000   0.0000  24.8920 " ConfE="      -5925.3963" DelE="          0.0000"
Ni    -3.49582468    0.04982386    0.04073146       1
Ni     0.02829566    3.61202222    0.08087724       2
Cr    -0.03868364   -3.43301232    0.01113043       3
Cr     0.04075768    0.00424699    3.59338232       4
Cr     0.03746782    0.06090381   -3.51228563       5
Co     3.59123687    0.09046673    0.03802784       6
Ni    -1.72222445    0.03768578    1.78051329       7
Ni    -0.00579450   -1.72421982    1.77754357       8
Cr    -1.70626808    0.04867356   -1.73945409       9
Ni     1.80390747    0.05072751   -1.69820487      10
Cr    -0.01881781   -1.70394396   -1.74642866      11
Ni    -1.74500097    1.85353838    0.04916378      12
Ni     0.04563309    1.82711633   -1.71372697      13
Co     1.77374531    0.05853962    1.82655191      14
Co     1.76988082   -1.71148083    0.04400167      15
Co     0.06517337    1.81016998    1.84593396      16
Co     1.79880678    1.81326609    0.08305873      17
Cr     0.00000000    0.00000000    0.00000000      18
          18
Lattice="  24.8920   0.0000   0.0000   0.0000  24.8920   0.0000   0.0000   0.0000  24.8920 " ConfE="      -5924.7019" DelE="          0.6944"
Ni    -3.47167541    0.05635769    0.05983410       1
Ni     0.02744275    3.60160532    0.08584323       2
Cr    -0.01633357   -3.45991190    0.03131537       3
Cr     0.05894457    0.02316533    3.66422606       4
Cr     0.08775367    0.08719545   -3.59400534       5
Co     3.58967182    0.07848774    0.03644538       6
Ni    -1.72252074    0.06571991    1.89054521       7
Ni     0.01259788   -1.71474355    1.86597832       8
Cr    -1.82921662    0.20621107   -1.91482136       9
Ni     1.73365101    0.02483366   -1.66690312      10
Cr     0.05487764   -1.76196213   -1.93205127      11
Ni    -1.70704157    1.78511041    0.06896602      12
Ni     0.03432617    1.75804228   -1.68114414      13
Co     1.74790549    0.06155050    1.81563712      14
Co     1.66469832   -1.69626694    0.04218124      15
Co     0.07759535    1.78882127    1.85592129      16
Co     1.79378218    1.78719120    0.08591228      17
Cr    -0.89725303   -0.80907874   -0.14793629      18
          18
Lattice="  24.8920   0.0000   0.0000   0.0000  24.8920   0.0000   0.0000   0.0000  24.8920 " ConfE="      -5925.1079" DelE="          0.2884"
Ni    -3.52461965    0.07133007    0.03818584       1
Ni     0.03386659    3.61885934    0.08627681       2
Cr     0.02065208   -3.50522245    0.03267882       3
Cr     0.05066197    0.00697069    3.61170839       4
Cr     0.06551571    0.07817781   -3.55219698       5
Co     3.61670817    0.09184683    0.04265071       6
Ni    -1.67983699    0.05941517    1.77269409       7
Ni     0.02324563   -1.70168818    1.79298056       8
Cr    -1.68345524    0.08798033   -1.76076679       9
Ni     1.77176193    0.05846715   -1.65465704      10
Cr     0.02636435   -1.66134719   -1.76804368      11
Ni    -1.71055121    1.81117459    0.04984676      12
Ni     0.05406562    1.79851799   -1.68536949      13
Co     1.78032033    0.08435713    1.84022277      14
Co     1.70635966   -1.69387712    0.04355624      15
Co     0.09566923    1.82224908    1.86696585      16
Co     1.81549921    1.81442592    0.09433883      17
Cr    -1.65404490   -1.66506528   -0.04015016      18
