          18
Lattice="  24.8920   0.0000   0.0000   0.0000  24.8920   0.0000   0.0000   0.0000  24.8920 " ConfE="      -5935.4416" DelE="          0.0000"
Co    -0.04225573    0.01752323   -3.54496145       1
Ni     3.42688157    0.03917337   -0.07967268       2
Co    -0.09830785    0.06287356    3.53043646       3
Co    -3.66985572    0.05782080   -0.01861131       4
Co    -0.12101599   -3.51017775   -0.04128499       5
Co    -0.02959700    3.58897715   -0.02795081       6
Co    -0.06695936   -1.69562385   -1.79708217       7
Ni    -0.09046239    1.76758346   -1.77191000       8
Co     1.64621682   -1.66810243   -0.07872728       9
Cr     1.70318644    1.75642674   -0.11380444      10
Ni    -1.87783476    0.05129338   -1.77338644      11
Co     1.66350328    0.09023911    1.74354671      12
Co    -1.86565922    0.07382199    1.70323343      13
Ni    -1.85862324   -1.71296205   -0.02497218      14
Cr    -1.79572581    1.79647961    0.05485424      15
Ni    -0.08931724   -1.71650143    1.75061758      16
Co    -0.06995654    1.81029167    1.73464177      17
Cr     0.00000000    0.00000000    0.00000000      18
          18
Lattice="  24.8920   0.0000   0.0000   0.0000  24.8920   0.0000   0.0000   0.0000  24.8920 " ConfE="      -5934.8684" DelE="          0.5732"
Co    -0.07146127    0.01824467   -3.49794355       1
Ni     3.34818974    0.05387584   -0.13217379       2
Co    -0.09109026    0.06643883    3.53200160       3
Co    -3.66920542    0.06364587   -0.03118344       4
Co    -0.12205595   -3.57169259   -0.02431661       5
Co    -0.05019828    3.65951433   -0.02517773       6
Co    -0.14012698   -1.84420349   -1.82901856       7
Ni    -0.16227424    1.90263127   -1.79009573       8
Co     1.70371475   -1.85832867   -0.03952523       9
Cr     1.68162817    1.93832686   -0.07279929      10
Ni    -1.83747545    0.05878970   -1.75965076      11
Co     1.62620179    0.08876102    1.64584050      12
Co    -1.82333492    0.08376464    1.65293329      13
Ni    -1.80611136   -1.69010722   -0.03538937      14
Cr    -1.70663655    1.74073638    0.06846519      15
Ni    -0.06760364   -1.68334854    1.69265972      16
Co    -0.06484611    1.78846540    1.68158939      17
Cr     0.69282406   -0.04107170   -0.79959397      18
          18
Lattice="  24.8920   0.0000   0.0000   0.0000  24.8920   0.0000   0.0000   0.0000  24.8920 " ConfE="      -5935.4006" DelE="          0.0410"
Co    -0.07339449    0.02447906   -3.59266627       1
Ni     3.48568489    0.03528344   -0.03179373       2
Co    -0.10269752    0.06600443    3.56073739       3
Co    -3.69301934    0.06113502   -0.01910312       4
Co    -0.12104595   -3.54130416   -0.03170675       5
Co    -0.04287156    3.61949107   -0.02656022       6
Co    -0.08916587   -1.70384691   -1.78721226       7
Ni    -0.09846738    1.76060430   -1.75200777       8
Co     1.64015572   -1.67068996   -0.07146752       9
Cr     1.58571677    1.72226646    0.03428338      10
Ni    -1.84803529    0.05796004   -1.75011743      11
Co     1.62467457    0.09494700    1.66776207      12
Co    -1.85990191    0.08495735    1.68135653      13
Ni    -1.83037868   -1.69229900   -0.01835206      14
Cr    -1.74565666    1.75916982    0.08548939      15
Ni    -0.09205652   -1.68056706    1.73120610      16
Co    -0.10046785    1.79340367    1.72922057      17
Cr     1.65346364   -0.01791629   -1.73468554      18
