          18
Lattice="  24.8920   0.0000   0.0000   0.0000  24.8920   0.0000   0.0000   0.0000  24.8920 " ConfE="      -5935.3945" DelE="          0.0000"
Ni    -0.05110289   -3.44216105   -0.04227373       1
Co     3.38562194    0.04538392   -0.08166760       2
Cr    -3.57585502    0.06044731    0.05155681       3
Cr    -0.05555930    3.58669453    0.04320296       4
Cr    -0.03804177    0.04375517   -3.58835350       5
Co    -0.06933111    0.05039580    3.50576150       6
Cr     1.72723275    0.02721438   -1.78231292       7
Co     1.70570879    0.03185334    1.66144901       8
Cr    -0.02056953   -1.69057338   -1.77511670       9
Co    -0.06167488   -1.63300309    1.67600602      10
Ni    -1.85043494    0.06721126   -1.78762371      11
Cr     1.73472959    1.84939899   -0.05027333      12
Co    -1.84748440   -1.66254811   -0.03047682      13
Co    -1.78865630    1.85332683   -0.02957986      14
Co    -1.83750608    0.07896914    1.74607177      15
Co    -0.05605267    1.82577541   -1.79949408      16
Cr    -0.06768719    1.74520390    1.75154806      17
Cr     0.00000000    0.00000000    0.00000000      18
          18
Lattice="  24.8920   0.0000   0.0000   0.0000  24.8920   0.0000   0.0000   0.0000  24.8920 " ConfE="      -5934.8103" DelE="          0.5842"
Ni    -0.05286884   -3.42768052   -0.05147810       1
Co     3.36966700    0.04793344   -0.07360864       2
Cr    -3.55464670    0.04885361    0.05133092       3
Cr    -0.05010386    3.55900949    0.04926619       4
Cr    -0.07348320    0.11671755   -3.70844262       5
Co    -0.08689429    0.07498244    3.57895172       6
Cr     1.70165959    0.10269068   -1.96180601       7
Co     1.71504232    0.07110897    1.79701691       8
Cr    -0.11945658   -1.71227077   -1.98801848       9
Co    -0.11044163   -1.65140446    1.82311838      10
Ni    -1.81387544    0.07400019   -1.78962930      11
Cr     1.69724551    1.76533139   -0.06373671      12
Co    -1.71936528   -1.61014757   -0.03848045      13
Co    -1.76210483    1.83395725   -0.03150786      14
Co    -1.79134077    0.08233115    1.72569335      15
Co    -0.03769837    1.78250199   -1.77585374      16
Cr    -0.06597478    1.61012987    1.63469325      17
Cr     0.92591082   -0.98394314   -0.03739038      18
          18
Lattice="  24.8920   0.0000   0.0000   0.0000  24.8920   0.0000   0.0000   0.0000  24.8920 " ConfE="      -5935.2262" DelE="          0.1683"
Ni    -0.07424017   -3.49234902   -0.03255556       1
Co     3.46652539    0.07636942   -0.05967733       2
Cr    -3.57166403    0.05490233    0.05959210       3
Cr    -0.05304866    3.57356847    0.05245577       4
Cr    -0.06119908    0.05291297   -3.63143973       5
Co    -0.08350078    0.05778456    3.54230819       6
Cr     1.67985914    0.07667013   -1.83180954       7
Co     1.67959741    0.06996588    1.67835264       8
Cr    -0.07363961   -1.64827872   -1.75695518       9
Co    -0.06337695   -1.61606682    1.67477345      10
Ni    -1.83552685    0.07953477   -1.77718192      11
Cr     1.66462305    1.72245489   -0.02772785      12
Co    -1.75931962   -1.63107764   -0.03706914      13
Co    -1.76639013    1.83858040   -0.02192288      14
Co    -1.81381652    0.09188135    1.73469322      15
Co    -0.04988254    1.80142260   -1.77870433      16
Cr    -0.10626920    1.68814413    1.69432184      17
Cr     1.61704784   -1.58230652   -0.02903036      18
