          18
Lattice="  24.8920   0.0000   0.0000   0.0000  24.8920   0.0000   0.0000   0.0000  24.8920 " ConfE="      -5946.1629" DelE="          0.0000"
Ni    -0.02035972    3.53604052   -0.01899854       1
Cr     3.50539931   -0.01879380   -0.03146555       2
Co    -0.04578663   -0.00038205    3.47492610       3
Ni    -0.04856464   -3.57641099   -0.03252062       4
Co    -0.03925662    0.01202939   -3.58722505       5
Cr    -3.55918942    0.01669833   -0.07469768       6
Co     1.77878844    1.73666853   -0.00659332       7
Co    -0.03233742    1.73735935    1.76199496       8
Co     1.69517912   -1.76112479   -0.04311871       9
Cr    -0.06341556   -1.73525827    1.75130703      10
Ni    -0.03614115    1.79100296   -1.80959898      11
Co    -1.83009030    1.74278317   -0.02593346      12
Cr    -0.02224213   -1.72924273   -1.77398864      13
Co    -1.83327188   -1.76128859   -0.06384658      14
Cr     1.75608940    0.01866610   -1.80743919      15
Co    -1.84372545   -0.02988408    1.74349749      16
Cr    -1.79548431    0.02454561   -1.81287031      17
Ni     0.00000000    0.00000000    0.00000000      18
          18
Lattice="  24.8920   0.0000   0.0000   0.0000  24.8920   0.0000   0.0000   0.0000  24.8920 " ConfE="      -5945.5061" DelE="          0.6568"
Ni    -0.05983140    3.63157881   -0.04491224       1
Cr     3.49194981   -0.02622575   -0.03305482       2
Co    -0.04657787    0.01517389    3.46587631       3
Ni    -0.06096678   -3.66080695   -0.03616492       4
Co    -0.03617197    0.02447661   -3.57422662       5
Cr    -3.55546450    0.02944927   -0.07221485       6
Co     1.78769048    1.94127850   -0.06681454       7
Co    -0.09921615    1.91126840    1.76095075       8
Co     1.69545749   -1.91509383   -0.11853513       9
Cr    -0.12147642   -1.87598385    1.72474942      10
Ni    -0.02905740    1.81500042   -1.77702441      11
Co    -1.78851279    1.72778959   -0.02711152      12
Cr    -0.03042683   -1.70016861   -1.65290791      13
Co    -1.77718530   -1.74470066   -0.05323660      14
Cr     1.62205098    0.00944733   -1.64137636      15
Co    -1.75110260   -0.02167628    1.69085686      16
Cr    -1.68264359    0.04129239   -1.70646449      17
Ni     1.11862729    0.00452900    1.09683329      18
          18
Lattice="  24.8920   0.0000   0.0000   0.0000  24.8920   0.0000   0.0000   0.0000  24.8920 " ConfE="      -5945.8214" DelE="          0.3416"
Ni    -0.03374466    3.56556700   -0.02806020       1
Cr     3.56014243   -0.02767029   -0.06087640       2
Co    -0.06506841    0.00742333    3.52467496       3
Ni    -0.05459748   -3.61037463   -0.02925613       4
Co    -0.04517373    0.01761262   -3.60787297       5
Cr    -3.57285369    0.02399743   -0.07795079       6
Co     1.74737677    1.75645643   -0.05862904       7
Co    -0.06701367    1.75579356    1.72740906       8
Co     1.64998232   -1.76100603   -0.07706361       9
Cr    -0.10869683   -1.74054754    1.69657568      10
Ni    -0.04510997    1.79016413   -1.79514300      11
Co    -1.80347783    1.70421800   -0.03276101      12
Cr    -0.04196895   -1.68158120   -1.69019461      13
Co    -1.79963623   -1.74453768   -0.06639149      14
Cr     1.64962986    0.01950833   -1.71522372      15
Co    -1.76669570   -0.04452340    1.70403579      16
Cr    -1.72016710    0.03522246   -1.73417923      17
Ni     1.64962634   -0.00000622    1.66202961      18
