          18
Lattice="  24.8920   0.0000   0.0000   0.0000  24.8920   0.0000   0.0000   0.0000  24.8920 " ConfE="      -5945.3728" DelE="          0.0000"
Co    -0.00130360   -3.55996245    0.10073379       1
Cr     0.03869840    0.11006955   -3.38512108       2
Co    -0.01633381    3.59445288    0.04934524       3
Co     0.01171965    0.04501145    3.60670775       4
Ni    -3.53794797    0.03749157    0.02916391       5
Ni     3.50222843    0.03545048    0.01307190       6
Ni    -1.72943139   -1.75551459    0.00142027       7
Ni     1.75607112   -1.74933857    0.02976747       8
Co    -1.76147972    0.05853104   -1.75414452       9
Co     1.68249949    0.02904755   -1.76900445      10
Co     0.01359720   -1.75396389    1.89716731      11
Cr    -0.05659367    1.91041144   -1.66436684      12
Co    -0.01884736    1.82749901    1.79413017      13
Cr    -1.69783377    0.02312240    1.79262432      14
Ni     1.74866761    0.05129557    1.81294364      15
Co    -1.78437566    1.80125422    0.06712457      16
Co     1.73378563    1.83790372    0.00848338      17
Ni     0.00000000    0.00000000    0.00000000      18
          18
Lattice="  24.8920   0.0000   0.0000   0.0000  24.8920   0.0000   0.0000   0.0000  24.8920 " ConfE="      -5944.6912" DelE="          0.6816"
Co     0.00019979   -3.52230263    0.07374486       1
Cr     0.04493363    0.10915577   -3.40662159       2
Co    -0.01860577    3.60104757    0.04637594       3
Co     0.01996730    0.03889858    3.60964561       4
Ni    -3.60266553    0.04243385    0.05596807       5
Ni     3.58348786    0.03891829    0.05892139       6
Ni    -1.85559282   -1.77183084    0.05613586       7
Ni     1.87206809   -1.74905993    0.08349894       8
Co    -1.98348235    0.12871647   -1.78765592       9
Co     1.93805626    0.13444610   -1.75337448      10
Co    -0.00963353   -1.71144339    1.82022864      11
Cr    -0.01236275    1.76736356   -1.62083601      12
Co    -0.02653085    1.79280815    1.76558208      13
Cr    -1.58218365    0.03166766    1.66127255      14
Ni     1.71082171    0.05165175    1.76549277      15
Co    -1.73334019    1.73114678    0.04856930      16
Co     1.69612824    1.80538325    0.00548831      17
Ni    -0.01138487   -0.97524652   -1.13275866      18
          18
Lattice="  24.8920   0.0000   0.0000   0.0000  24.8920   0.0000   0.0000   0.0000  24.8920 " ConfE="      -5945.3083" DelE="          0.0645"
Co    -0.00892895   -3.57286011    0.10383089       1
Cr     0.05414818    0.12901166   -3.44372956       2
Co    -0.01533287    3.61904809    0.05264121       3
Co     0.01425917    0.04588086    3.62546919       4
Ni    -3.55336250    0.04452817    0.03385226       5
Ni     3.51465790    0.04082866    0.02496699       6
Ni    -1.73084886   -1.71553589    0.03617774       7
Ni     1.74397766   -1.72053863    0.05478755       8
Co    -1.75115082    0.07888817   -1.72189501       9
Co     1.67536721    0.06668987   -1.71469289      10
Co    -0.00425575   -1.72224696    1.85614258      11
Cr    -0.02605305    1.82596766   -1.62901436      12
Co    -0.02832152    1.80556363    1.77874872      13
Cr    -1.60780879    0.05483430    1.72569323      14
Ni     1.70135832    0.06185602    1.78219226      15
Co    -1.73449496    1.76077673    0.06269489      16
Co     1.69160824    1.82259657    0.00725234      17
Ni    -0.00649391   -1.71916994   -1.70899665      18
