          19
Lattice="  24.8920   0.0000   0.0000   0.0000  24.8920   0.0000   0.0000   0.0000  24.8920 " ConfE="      -5934.7172" DelE="          0.0000"
Cr    -1.68082782    3.11209859    1.75702665       1
Co    -0.08089709   -0.06060533    3.39295006       2
Cr    -0.04331889    3.23378973   -0.08157958       3
Ni    -0.06729013   -3.68197786   -0.11091864       4
Cr    -0.06530421   -0.13136635   -3.71012207       5
Ni     3.46412443   -0.11721074   -0.10953347       6
Co    -3.55169360   -0.12172098   -0.08956558       7
Co     1.63953815   -0.06204743    1.65938004       8
Cr    -1.74765267    0.02249059    1.75000487       9
Co     1.67818459    1.64016938   -0.15013963      10
Ni    -0.07678983   -1.90225069    1.68187054      11
Ni     1.71567411   -0.14893103   -1.89456837      12
Co    -0.10069364    1.61776057   -1.95478047      13
Co    -0.07247666   -1.90286493   -1.88686623      14
Cr    -1.83899704   -0.17618727   -1.97233764      15
Cr    -1.81660746   -1.82810736   -0.09208304      16
Ni     1.69726854   -1.92589773   -0.09807118      17
Cr    -1.85173928    1.58993521   -0.19101094      18
Cr     0.00000000    0.00000000    0.00000000      19
          19
Lattice="  24.8920   0.0000   0.0000   0.0000  24.8920   0.0000   0.0000   0.0000  24.8920 " ConfE="      -5934.1558" DelE="          0.5614"
Cr    -1.69801455    3.09921815    1.68105408       1
Co    -0.06642927   -0.06041022    3.41900676       2
Cr    -0.06175287    3.33387434   -0.12997322       3
Ni    -0.07948382   -3.66141737   -0.10554483       4
Cr    -0.04817096   -0.10547809   -3.67488129       5
Ni     3.51052543   -0.13296600   -0.11691609       6
Co    -3.62727628   -0.13045728   -0.12131240       7
Co     1.80303863   -0.12453130    1.71774334       8
Cr    -2.00542594   -0.07844589    1.81289885       9
Co     1.76453005    1.62216932   -0.16964800      10
Ni    -0.07275578   -1.80311299    1.66889368      11
Ni     1.68571749   -0.15346360   -1.85362907      12
Co    -0.10033273    1.58908179   -1.81045932      13
Co    -0.08097318   -1.92319981   -1.91892044      14
Cr    -1.82283269   -0.21248168   -1.97966685      15
Cr    -1.73234474   -1.64798200   -0.05962110      16
Ni     1.66711596   -1.88178345   -0.09069207      17
Cr    -1.91534021    1.53900746   -0.29098944      18
Cr    -0.04543622    0.84418260    0.96313314      19
          19
Lattice="  24.8920   0.0000   0.0000   0.0000  24.8920   0.0000   0.0000   0.0000  24.8920 " ConfE="      -5934.6144" DelE="          0.1028"
Cr    -1.79601656    3.22552355    1.73271721       1
Co    -0.06111832   -0.12133000    3.47481675       2
Cr    -0.09962712    3.36207317   -0.13653324       3
Ni    -0.07266755   -3.68898709   -0.11528041       4
Cr    -0.05698084   -0.12945040   -3.71999621       5
Ni     3.47094217   -0.12408713   -0.11757481       6
Co    -3.59015632   -0.13788716   -0.09896826       7
Co     1.64860980   -0.10062833    1.65461250       8
Cr    -1.79949791   -0.08393995    1.75619937       9
Co     1.64724502    1.61004728   -0.14813626      10
Ni    -0.08072005   -1.85742262    1.65286680      11
Ni     1.67664348   -0.16000542   -1.87534861      12
Co    -0.10394414    1.59318745   -1.89414301      13
Co    -0.07612969   -1.93428430   -1.92434059      14
Cr    -1.80313764   -0.23492330   -1.97337816      15
Cr    -1.78580379   -1.77966296   -0.09957165      16
Ni     1.67281344   -1.91853709   -0.11134788      17
Cr    -1.69973610    1.36062488   -0.18191166      18
Cr     0.03844328    1.52874650    1.59198649      19
