          18
Lattice="  24.8920   0.0000   0.0000   0.0000  24.8920   0.0000   0.0000   0.0000  24.8920 " ConfE="      -5939.5535" DelE="          0.0000"
Co    -3.49459874   -0.01205920   -0.01522919       1
Cr    -0.05563327    0.02983642   -3.51327392       2
Cr     3.64687358    0.00557364    0.11695713       3
Co     0.02037419    0.00247148    3.55313431       4
Co     0.04307895   -3.51803136    0.01216618       5
Cr    -0.04841106    3.55866588    0.02727675       6
Cr    -1.76855900   -1.72837464   -0.03129993       7
Co    -1.73855715    1.74598780    0.02109664       8
Ni    -0.00372940   -1.72773597   -1.76392701       9
Ni     0.03643046    1.77110615   -1.75125977      10
Cr    -1.76618670   -0.04364649    1.82215421      11
Cr     1.86433636    0.00893926   -1.68663559      12
Co     1.80151655    0.01745188    1.75569952      13
Cr     0.07128439   -1.80525959    1.78931935      14
Cr     0.00126011    1.77734000    1.78862003      15
Co     1.83043695   -1.77145181    0.01705756      16
Cr     1.80945536    1.79338940    0.06108945      17
Ni     0.00000000    0.00000000    0.00000000      18
          18
Lattice="  24.8920   0.0000   0.0000   0.0000  24.8920   0.0000   0.0000   0.0000  24.8920 " ConfE="      -5938.9689" DelE="          0.5846"
Co    -3.47798768   -0.00227457   -0.00763303       1
Cr    -0.05945001    0.02673417   -3.44903966       2
Cr     3.64630560    0.01447598    0.10498815       3
Co     0.00616801    0.00600112    3.56681699       4
Co     0.05965561   -3.57522464    0.02258797       5
Cr    -0.03055901    3.62638003    0.05059418       6
Cr    -1.78346882   -1.90716413    0.03291992       7
Co    -1.78416860    1.95547431    0.08811696       8
Ni     0.07766446   -1.90349725   -1.78961287       9
Ni     0.07520415    1.95180157   -1.76927135      10
Cr    -1.71844107   -0.02164705    1.72882435      11
Cr     1.74711277    0.01072246   -1.64200980      12
Co     1.71113829    0.02742350    1.68755416      13
Cr     0.05764028   -1.72906176    1.70899859      14
Cr    -0.01365290    1.72899126    1.73463346      15
Co     1.79310564   -1.74886683    0.00989651      16
Cr     1.75612574    1.76550116    0.04822153      17
Ni    -0.84678708    0.02053630   -0.84193687      18
          18
Lattice="  24.8920   0.0000   0.0000   0.0000  24.8920   0.0000   0.0000   0.0000  24.8920 " ConfE="      -5939.5816" DelE="         -0.0282"
Co    -3.54535176   -0.01754054    0.02722528       1
Cr     0.00205738    0.02094555   -3.55734063       2
Cr     3.67481285    0.00437540    0.11890426       3
Co     0.01777779   -0.00159318    3.58919509       4
Co     0.06121740   -3.55162719    0.01661273       5
Cr    -0.04215339    3.58922009    0.03820101       6
Cr    -1.68788474   -1.73219173    0.01568173       7
Co    -1.66583536    1.70699581    0.07910930       8
Ni     0.03618977   -1.73978615   -1.73647761       9
Ni     0.06055819    1.76222528   -1.72400129      10
Cr    -1.72768927   -0.04398872    1.76780573      11
Cr     1.81259012    0.00188105   -1.63502017      12
Co     1.73808120    0.02070351    1.71359612      13
Cr     0.07509125   -1.73947114    1.75016523      14
Cr     0.01053246    1.71049575    1.76116159      15
Co     1.79859697   -1.73633871    0.01727385      16
Cr     1.76806642    1.74458171    0.06547256      17
Ni    -1.72793386    0.00491457   -1.74001987      18
