          18
Lattice="  24.8920   0.0000   0.0000   0.0000  24.8920   0.0000   0.0000   0.0000  24.8920 " ConfE="      -5939.7052" DelE="          0.0000"
Ni    -3.51950581    0.06343617   -0.02985142       1
Ni     3.63054499    0.10559683   -0.03638455       2
Ni     0.03583810    0.07246902    3.50998463       3
Ni     0.04457671    3.63114600   -0.04095782       4
Cr     0.01510890   -3.38498743   -0.11754703       5
Cr     0.01379418    0.08573937   -3.58054153       6
Ni    -1.77150921    0.05984399   -1.76821339       7
Cr    -0.05378507   -1.65666783   -1.80581223       8
Ni     1.81942174    0.11029461   -1.79624151       9
Cr    -1.78437037    0.01986322    1.75564603      10
Co     0.01538400   -1.67045423    1.69238285      11
Ni     1.81360844    1.87099520   -0.00889214      12
Co     0.01197799    1.83108691   -1.82327011      13
Co    -1.71185678    1.83807558   -0.03609280      14
Co     1.80928066   -1.67448828   -0.08038233      15
Cr     0.01283729    1.79339753    1.70532066      16
Cr     1.86212485    0.03898160    1.74178366      17
Cr     0.00000000    0.00000000    0.00000000      18
          18
Lattice="  24.8920   0.0000   0.0000   0.0000  24.8920   0.0000   0.0000   0.0000  24.8920 " ConfE="      -5939.0367" DelE="          0.6685"
Ni    -3.49253331    0.06689463   -0.04962107       1
Ni     3.60377901    0.09454941   -0.04279667       2
Ni     0.03999193    0.09354383    3.56520556       3
Ni     0.03836128    3.64471804   -0.05385016       4
Cr     0.05545617   -3.44085652   -0.10649375       5
Cr     0.03881333    0.14447972   -3.66536413       6
Ni    -1.76504412    0.10944916   -1.89367216       7
Cr     0.00480339   -1.65095437   -1.96986304       8
Ni     1.76209979    0.10820265   -1.78257533       9
Cr    -1.79430974    0.07305058    1.88365381      10
Co     0.09725441   -1.71125071    1.88944773      11
Ni     1.78867262    1.87530742   -0.03310353      12
Co     0.00399401    1.82126837   -1.84371661      13
Co    -1.64080769    1.73398657   -0.03248960      14
Co     1.65741730   -1.63563123   -0.05808537      15
Cr    -0.00732819    1.71470208    1.62159121      16
Cr     1.73232146    0.04704124    1.65334362      17
Cr    -1.04560299   -1.05683286    0.04854533      18
          18
Lattice="  24.8920   0.0000   0.0000   0.0000  24.8920   0.0000   0.0000   0.0000  24.8920 " ConfE="      -5939.6755" DelE="          0.0297"
Ni    -3.55353812    0.09620872   -0.03389226       1
Ni     3.63409860    0.11037119   -0.03222498       2
Ni     0.04565484    0.09562962    3.53727577       3
Ni     0.04987026    3.65880781   -0.05012819       4
Cr     0.06432829   -3.46839257   -0.10555595       5
Cr     0.02248148    0.09843836   -3.59176701       6
Ni    -1.73503837    0.09382234   -1.76884946       7
Cr     0.02053520   -1.60701173   -1.77248573       8
Ni     1.79774825    0.13294993   -1.76908911       9
Cr    -1.71385029    0.08444686    1.74605470      10
Co     0.04220988   -1.62109694    1.68612010      11
Ni     1.80352881    1.88126103   -0.01429768      12
Co     0.01717024    1.84677998   -1.83685618      13
Co    -1.65693084    1.78810383   -0.01271094      14
Co     1.73113985   -1.63591433   -0.06942384      15
Cr     0.02873932    1.77737177    1.65975001      16
Cr     1.80597143    0.07638052    1.71205947      17
Cr    -1.67787489   -1.63463086   -0.02007323      18
