          18
Lattice="  24.8920   0.0000   0.0000   0.0000  24.8920   0.0000   0.0000   0.0000  24.8920 " ConfE="      -5930.0710" DelE="          0.0000"
Ni    -0.01442885   -3.45412343   -0.00865795       1
Cr     0.07077978   -0.09225924    3.40006438       2
Co    -0.02524003    0.03110084   -3.60354747       3
Co     0.00880478    3.63850669   -0.00425343       4
Co    -3.52335430    0.05119752   -0.01458269       5
Co     3.54110554    0.04638345   -0.00653839       6
Cr    -1.70375330    0.04284586    1.75404613       7
Co     1.73763910    0.03537885    1.76071422       8
Cr    -1.79793723   -1.72657374    0.02732217       9
Co     1.78808325   -1.74883632   -0.01824456      10
Ni    -1.78067019    1.85139234   -0.04300348      11
Ni     1.75354387    1.82694558   -0.04326477      12
Co    -0.01729997    1.87018490    1.73670438      13
Co    -0.05645723   -1.70059771   -1.82495847      14
Cr    -0.01662242    1.78522428   -1.80975364      15
Cr    -1.80235913    0.02501289   -1.77859226      16
Co     1.74546897    0.04086180   -1.80100355      17
Ni     0.00000000    0.00000000    0.00000000      18
          18
Lattice="  24.8920   0.0000   0.0000   0.0000  24.8920   0.0000   0.0000   0.0000  24.8920 " ConfE="      -5929.5618" DelE="          0.5092"
Ni    -0.01317040   -3.41505065   -0.01049552       1
Cr     0.07300719   -0.10906476    3.32615856       2
Co    -0.02826710    0.02316837   -3.60101320       3
Co     0.00943141    3.64903661    0.01115839       4
Co    -3.56235651    0.05968900   -0.01712058       5
Co     3.58376399    0.06009830   -0.02469998       6
Cr    -1.86926359    0.14142874    1.77803892       7
Co     1.89752001    0.09586837    1.76795910       8
Cr    -1.97770132   -1.80142463   -0.02792533       9
Co     1.94556328   -1.79540628   -0.03780417      10
Ni    -1.81195931    1.88182754   -0.02884124      11
Ni     1.76080981    1.82594389   -0.03469126      12
Co    -0.01243544    1.81267780    1.70131553      13
Co    -0.05376608   -1.67254961   -1.77170329      14
Cr    -0.00946145    1.72806155   -1.72246699      15
Cr    -1.72153929    0.02840936   -1.64101033      16
Co     1.71219274    0.03537567   -1.74195057      17
Ni    -0.02753181   -0.60501570    0.54442539      18
          18
Lattice="  24.8920   0.0000   0.0000   0.0000  24.8920   0.0000   0.0000   0.0000  24.8920 " ConfE="      -5929.6063" DelE="          0.4647"
Ni    -0.01395986   -3.41753294   -0.00365934       1
Cr     0.05647647   -0.11391161    3.36993011       2
Co    -0.02709078    0.02183391   -3.60508199       3
Co     0.00568938    3.64100629    0.01233845       4
Co    -3.57553469    0.06331784   -0.02206793       5
Co     3.59619996    0.05995366   -0.02852124       6
Cr    -1.88912757    0.16442766    1.78382753       7
Co     1.91221674    0.10163113    1.75792530       8
Cr    -2.01319691   -1.79175533   -0.06299202       9
Co     1.97135182   -1.79097029   -0.04801694      10
Ni    -1.79983267    1.85156614   -0.03875090      11
Ni     1.75091055    1.80901401   -0.03973824      12
Co    -0.01515291    1.78329253    1.69841401      13
Co    -0.05250305   -1.64420325   -1.72817416      14
Cr    -0.00985031    1.71126361   -1.72153246      15
Cr    -1.74164689    0.02821277   -1.67885896      16
Co     1.71766305    0.03528367   -1.75033486      17
Ni    -0.04173780   -0.87559621    0.79585342      18
