          18
Lattice="  24.8920   0.0000   0.0000   0.0000  24.8920   0.0000   0.0000   0.0000  24.8920 " ConfE="      -5938.3235" DelE="          0.0000"
Co    -0.03648332   -0.03676260   -3.56939893       1
Co     3.51358084   -0.00579340   -0.04051084       2
Cr    -0.02732615   -0.03064675    3.56537094       3
Ni    -3.55291416    0.01034505    0.02353555       4
Co    -0.02365101   -3.61022556    0.02360922       5
Co    -0.00366747    3.54378795   -0.00042300       6
Ni    -0.00527361   -1.77674185   -1.75110680       7
Co     0.06414228    1.71013459   -1.80812906       8
Ni     1.73486288   -1.76585866   -0.01088845       9
Cr     1.65700832    1.66914868   -0.06587930      10
Ni    -1.79387050   -0.02147603   -1.77595365      11
Ni     1.75880075   -0.01479060    1.79509250      12
Ni    -1.79884923   -0.02948987    1.78510451      13
Cr    -1.71997795   -1.78224836    0.02603993      14
Cr    -1.60200720    1.75687498   -0.02756775      15
Co    -0.01808119   -1.81487761    1.81147598      16
Co    -0.03030417    1.75974772    1.80930345      17
Co     0.00000000    0.00000000    0.00000000      18
          18
Lattice="  24.8920   0.0000   0.0000   0.0000  24.8920   0.0000   0.0000   0.0000  24.8920 " ConfE="      -5937.6388" DelE="          0.6846"
Co     0.02677916   -0.02827640   -3.53150427       1
Co     3.39769071    0.00916906   -0.05795400       2
Cr    -0.01762762   -0.02590338    3.59894561       3
Ni    -3.52965816    0.01558738    0.01638642       4
Co    -0.03294345   -3.67324495    0.02914347       5
Co    -0.04004787    3.58026404    0.00005120       6
Ni    -0.01537606   -1.88505304   -1.78370440       7
Co    -0.01605872    1.89671775   -1.93284289       8
Ni     1.73445130   -1.90109771    0.03655805       9
Cr     1.65808139    1.91521620    0.06563647      10
Ni    -1.73956062   -0.03912745   -1.79616067      11
Ni     1.68547916    0.00138252    1.74189249      12
Ni    -1.75903978   -0.01926829    1.77204310      13
Cr    -1.61402040   -1.68979974    0.03221121      14
Cr    -1.43161361    1.61946183   -0.09550033      15
Co    -0.02663347   -1.82204227    1.79182030      16
Co    -0.05227985    1.77794081    1.81370046      17
Co     0.71624160    0.09326188   -0.71639991      18
          18
Lattice="  24.8920   0.0000   0.0000   0.0000  24.8920   0.0000   0.0000   0.0000  24.8920 " ConfE="      -5938.4641" DelE="         -0.1406"
Co    -0.06074877   -0.03459631   -3.59074752       1
Co     3.54953837   -0.01516064    0.00165249       2
Cr    -0.03537067   -0.03069969    3.59938150       3
Ni    -3.56397140    0.01224211    0.02917735       4
Co    -0.02848547   -3.63069971    0.02815647       5
Co    -0.00733052    3.57209190    0.00320206       6
Ni    -0.03262256   -1.78203118   -1.72673330       7
Co     0.00991741    1.73046658   -1.77286340       8
Ni     1.69615112   -1.76377210    0.02198069       9
Cr     1.60403223    1.67536382   -0.01596971      10
Ni    -1.76125358   -0.02859829   -1.74534819      11
Ni     1.70935218   -0.01242574    1.75725502      12
Ni    -1.77869138   -0.02835651    1.76678410      13
Cr    -1.68779905   -1.74019925    0.04595560      14
Cr    -1.54164374    1.68889249   -0.03777924      15
Co    -0.03644250   -1.80972170    1.80280989      16
Co    -0.04404248    1.73882435    1.76634659      17
Co     1.72394170   -0.00041207   -1.73944124      18
