          18
Lattice="  24.8920   0.0000   0.0000   0.0000  24.8920   0.0000   0.0000   0.0000  24.8920 " ConfE="      -5941.9737" DelE="          0.0000"
Ni    -3.41437566   -0.00172912    0.01473884       1
Co     0.04928604    3.47086840    0.04270053       2
Cr     3.64418597   -0.09756834    0.01860672       3
Ni     0.04979672   -3.59757640    0.01603569       4
Co     0.04655327   -0.04647270   -3.55378289       5
Co     0.09386704   -0.02838006    3.55249577       6
Cr    -1.68438151   -0.11546381   -1.80458622       7
Co    -1.65762979    0.02467394    1.74325567       8
Ni    -0.00158645    1.73429260   -1.73623643       9
Cr     0.01590531    1.70480886    1.74654826      10
Ni    -1.72664970   -1.83752762    0.01539656      11
Co     1.84260217    1.73143033    0.00112359      12
Ni     1.77360246   -1.81376785    0.00229144      13
Co    -0.01448489   -1.78612171   -1.77657978      14
Cr     0.02115443   -1.74774348    1.81162253      15
Ni     1.80104029   -0.06027639   -1.77040678      16
Cr     1.84774327   -0.02677499    1.75818293      17
Cr     0.00000000    0.00000000    0.00000000      18
          18
Lattice="  24.8920   0.0000   0.0000   0.0000  24.8920   0.0000   0.0000   0.0000  24.8920 " ConfE="      -5941.4736" DelE="          0.5001"
Ni    -3.41565951   -0.00488844    0.02898521       1
Co     0.07217632    3.48933137    0.01600510       2
Cr     3.61028632   -0.07439812    0.01518516       3
Ni     0.04169869   -3.59294777    0.00992056       4
Co     0.07936911   -0.05211877   -3.63566242       5
Co     0.11316575   -0.04911614    3.62608325       6
Cr    -1.66517713   -0.12862092   -1.87518833       7
Co    -1.69255514   -0.04736076    1.89158894       8
Ni     0.08057332    1.75951830   -1.87734877       9
Cr     0.14053240    1.75689940    1.90500914      10
Ni    -1.69132090   -1.75289835    0.01708382      11
Co     1.74173475    1.69481377    0.01277447      12
Ni     1.74451076   -1.78871653   -0.00880721      13
Co    -0.03523949   -1.72616447   -1.76792976      14
Cr    -0.00248601   -1.66593190    1.75439095      15
Ni     1.76264958   -0.05157766   -1.76265291      16
Cr     1.75970193   -0.03820556    1.69259002      17
Cr    -0.99657009    1.06134302    0.06578744      18
          18
Lattice="  24.8920   0.0000   0.0000   0.0000  24.8920   0.0000   0.0000   0.0000  24.8920 " ConfE="      -5942.0472" DelE="         -0.0735"
Ni    -3.46793559   -0.02963542    0.02578637       1
Co     0.10007515    3.53094645    0.05483394       2
Cr     3.63789855   -0.09990825    0.01188886       3
Ni     0.05121342   -3.60116445    0.01492948       4
Co     0.06546754   -0.05219654   -3.60053638       5
Co     0.10466161   -0.03822945    3.59938584       6
Cr    -1.65673246   -0.12798667   -1.78366674       7
Co    -1.63693572   -0.00714336    1.75202925       8
Ni     0.03210075    1.69627860   -1.73459519       9
Cr     0.04480968    1.63809588    1.75366104      10
Ni    -1.69112952   -1.78295919    0.01647196      11
Co     1.78521597    1.69422014    0.02881651      12
Ni     1.74393924   -1.78989966    0.00330786      13
Co    -0.02848178   -1.75287152   -1.77971179      14
Cr     0.03307079   -1.69278008    1.79273013      15
Ni     1.78809494   -0.06975134   -1.75934342      16
Cr     1.82139658   -0.03572908    1.72445448      17
Cr    -1.66494209    1.73874479    0.03875467      18
