          18
Lattice="  24.8920   0.0000   0.0000   0.0000  24.8920   0.0000   0.0000   0.0000  24.8920 " ConfE="      -5935.3818" DelE="          0.0000"
Cr     3.25045936    0.00967270   -0.00498311       1
Co    -0.14998657   -3.45711742    0.02370662       2
Cr    -3.80358430    0.02206738    0.07394184       3
Cr    -0.20695624    3.60911274    0.06106820       4
Ni    -0.22958154    0.05159152   -3.53028883       5
Co    -0.18227170    0.06496831    3.58361016       6
Cr     1.60671394   -0.02342350   -1.77938312       7
Cr     1.59837807    0.05225558    1.83729353       8
Co    -0.14270101   -1.71351413   -1.70371167       9
Ni    -0.14350008   -1.71129964    1.78600122      10
Co     1.58244575    1.87101386    0.01215984      11
Ni    -1.95789987   -1.67610544    0.06065456      12
Ni    -1.96182797    1.78665372    0.03239969      13
Ni    -0.20393304    1.82441963   -1.75155407      14
Co    -0.14564730    1.83006175    1.79436443      15
Ni    -1.96896197    0.02747173   -1.72505209      16
Cr    -1.89014364    0.06733252    1.86882030      17
Cr     0.00000000    0.00000000    0.00000000      18
          18
Lattice="  24.8920   0.0000   0.0000   0.0000  24.8920   0.0000   0.0000   0.0000  24.8920 " ConfE="      -5934.9367" DelE="          0.4451"
Cr     3.33397354    0.06775762   -0.02384243       1
Co    -0.13750622   -3.42493428    0.03020645       2
Cr    -3.77198369    0.00709792    0.07555025       3
Cr    -0.18525012    3.56803280    0.05721305       4
Ni    -0.27760855    0.05630187   -3.57038671       5
Co    -0.20903511    0.06452170    3.66109733       6
Cr     1.61701642    0.06827842   -1.98761857       7
Cr     1.52366109    0.15278506    1.98240627       8
Co    -0.22963771   -1.73636270   -1.83401856       9
Ni    -0.19962742   -1.72921819    1.90090886      10
Co     1.54643568    1.69526259   -0.00202724      11
Ni    -1.88848200   -1.65636528    0.05837844      12
Ni    -1.96249947    1.77373155    0.02467860      13
Ni    -0.21480026    1.77560936   -1.73398773      14
Co    -0.16732014    1.77198261    1.77670792      15
Ni    -1.96915173    0.02373937   -1.72472219      16
Cr    -1.81247130    0.07248000    1.81668368      17
Cr     0.79664790   -0.87839121   -0.03099381      18
          18
Lattice="  24.8920   0.0000   0.0000   0.0000  24.8920   0.0000   0.0000   0.0000  24.8920 " ConfE="      -5935.4961" DelE="         -0.1142"
Cr     3.40320896    0.06362924   -0.00151566       1
Co    -0.21236654   -3.50349347    0.03619529       2
Cr    -3.80103060    0.02283261    0.07804472       3
Cr    -0.22500721    3.61353846    0.06317190       4
Ni    -0.23954529    0.06314320   -3.52981393       5
Co    -0.19169578    0.06896357    3.61593512       6
Cr     1.54043991    0.05062448   -1.64899736       7
Cr     1.51262141    0.09688037    1.71911580       8
Co    -0.16912091   -1.68060858   -1.69039265       9
Ni    -0.19134306   -1.67310311    1.78391172      10
Co     1.53943691    1.78277467    0.02078505      11
Ni    -1.94956245   -1.65325422    0.06093610      12
Ni    -1.99052409    1.79278373    0.03187275      13
Ni    -0.23457249    1.81359347   -1.72461273      14
Co    -0.17833543    1.79892162    1.77860814      15
Ni    -1.98551255    0.03820858   -1.72172624      16
Cr    -1.88459330    0.08835214    1.84183145      17
Cr     1.54882578   -1.70833336    0.01473032      18
