          18
Lattice="  24.8920   0.0000   0.0000   0.0000  24.8920   0.0000   0.0000   0.0000  24.8920 " ConfE="      -5923.7527" DelE="          0.0000"
Co     0.01757305   -0.11217971   -3.52380638       1
Co     3.46104727   -0.15716892    0.01121565       2
Ni    -0.08758853   -0.12995296    3.60817954       3
Cr    -3.64336245   -0.12285964    0.06033704       4
Co    -0.09091367   -3.70972356    0.04927557       5
Cr    -0.01959913    3.27518116   -0.02473261       6
Ni    -0.01748385   -1.82336227   -1.71938718       7
Co    -0.04776848    1.59195868   -1.71357579       8
Ni     1.69071730   -1.84546213    0.00090321       9
Co     1.67499936    1.58860641   -0.00096737      10
Ni    -1.85516016   -0.14554511   -1.72570703      11
Ni     1.72099652   -0.11912193    1.83179931      12
Co    -1.84233146   -0.13091451    1.81606493      13
Co    -1.82614134   -1.88551438    0.06180064      14
Ni    -1.86289394    1.61889555    0.04755551      15
Ni    -0.05876763   -1.87114440    1.78698959      16
Co    -0.08262609    1.61444204    1.82715217      17
Cr     0.00000000    0.00000000    0.00000000      18
          18
Lattice="  24.8920   0.0000   0.0000   0.0000  24.8920   0.0000   0.0000   0.0000  24.8920 " ConfE="      -5922.8553" DelE="          0.8973"
Co     0.02745335   -0.12301208   -3.46908870       1
Co     3.41112458   -0.16138906   -0.02835640       2
Ni    -0.07188015   -0.13847929    3.58935305       3
Cr    -3.59626676   -0.11904137    0.06256135       4
Co    -0.10418180   -3.79134592    0.07051488       5
Cr    -0.05179936    3.40098921    0.01074116       6
Ni    -0.07105537   -2.00626990   -1.73705036       7
Co    -0.09277685    1.75282962   -1.75353341       8
Ni     1.70982168   -1.99665255    0.02285903       9
Co     1.70724192    1.73907599    0.03792331      10
Ni    -1.76482809   -0.16324865   -1.69625586      11
Ni     1.68104505   -0.12652235    1.72398455      12
Co    -1.81595628   -0.14292529    1.79473839      13
Co    -1.80960433   -1.91204390    0.06814319      14
Ni    -1.77306170    1.58192236    0.03993079      15
Ni    -0.04676001   -1.88187334    1.75605881      16
Co    -0.06666953    1.61458532    1.79212180      17
Cr     0.81792653   -0.06268542   -0.86437472      18
          18
Lattice="  24.8920   0.0000   0.0000   0.0000  24.8920   0.0000   0.0000   0.0000  24.8920 " ConfE="      -5923.6172" DelE="          0.1355"
Co     0.00612626   -0.12303914   -3.55615979       1
Co     3.50110461   -0.15669295    0.03010959       2
Ni    -0.08614764   -0.13665611    3.61658616       3
Cr    -3.63225590   -0.12513970    0.06858371       4
Co    -0.09510214   -3.74039819    0.05772113       5
Cr    -0.02393139    3.33017313   -0.02343971       6
Ni    -0.04626762   -1.85558641   -1.70147938       7
Co    -0.04586761    1.58853947   -1.69224401       8
Ni     1.67100974   -1.85477252    0.02453690       9
Co     1.63862518    1.57458014    0.00215058      10
Ni    -1.80683121   -0.15880744   -1.68153829      11
Ni     1.68742385   -0.12442028    1.78058543      12
Co    -1.84231546   -0.14664755    1.82376488      13
Co    -1.84502996   -1.92070401    0.08777132      14
Ni    -1.81068539    1.58379748    0.06311909      15
Ni    -0.07051131   -1.87842342    1.78794053      16
Co    -0.08880430    1.60878572    1.82292500      17
Cr     1.73862293   -0.14915062   -1.75961376      18
