          18
Lattice="  24.8920   0.0000   0.0000   0.0000  24.8920   0.0000   0.0000   0.0000  24.8920 " ConfE="      -5944.8882" DelE="          0.0000"
Ni     3.47572829   -0.00467716    0.02327028       1
Ni    -0.01893421    0.02976706    3.56537490       2
Cr    -0.01038551   -3.54098216    0.03127754       3
Co     0.01914934    0.05964370   -3.50627632       4
Cr    -0.04800619    3.73521963    0.11150616       5
Co    -3.57261706    0.10125743    0.02890692       6
Ni     0.00975289   -1.73809864   -1.70037079       7
Ni     1.73402400    0.00700152    1.76289555       8
Ni    -0.02828791   -1.76246542    1.76560106       9
Cr     1.75163118    0.00709204   -1.73740768      10
Ni     1.70718056    1.84352128    0.01827646      11
Ni    -1.80892408    0.01271838   -1.75286858      12
Ni    -0.05349668    1.82424984    1.76780598      13
Ni    -1.80612319    0.04783822    1.78350806      14
Cr    -0.06413319    1.78426073   -1.76361206      15
Cr    -1.80118266    1.84156423   -0.02989704      16
Co    -1.81548110   -1.71462050    0.02126025      17
Cr     0.00000000    0.00000000    0.00000000      18
          18
Lattice="  24.8920   0.0000   0.0000   0.0000  24.8920   0.0000   0.0000   0.0000  24.8920 " ConfE="      -5944.1186" DelE="          0.7696"
Ni     3.45946210   -0.00338068    0.03598376       1
Ni    -0.02956883    0.03503695    3.62397785       2
Cr    -0.01216085   -3.48760980    0.01897575       3
Co     0.00707931    0.06904464   -3.55337159       4
Cr    -0.03921176    3.66905667    0.10564265       5
Co    -3.57375735    0.08034481    0.03024896       6
Ni    -0.05685751   -1.76017797   -1.85539947       7
Ni     1.78780118    0.06298330    1.91863683       8
Ni    -0.04360533   -1.74692595    1.86654086       9
Cr     1.75847851    0.05535697   -1.88418382      10
Ni     1.69386666    1.76196436    0.02953160      11
Ni    -1.77532910    0.00546815   -1.73215317      12
Ni    -0.04657203    1.76717206    1.75836370      13
Ni    -1.78726721    0.03951786    1.77421304      14
Cr    -0.06602806    1.70193242   -1.67846993      15
Cr    -1.76382819    1.78484169   -0.01438034      16
Co    -1.70353402   -1.69982832    0.02255483      17
Cr     0.91048993   -0.76474665   -0.03548778      18
          18
Lattice="  24.8920   0.0000   0.0000   0.0000  24.8920   0.0000   0.0000   0.0000  24.8920 " ConfE="      -5944.9504" DelE="         -0.0622"
Ni     3.52137692    0.02473965    0.03845126       1
Ni    -0.03502784    0.03412700    3.58566606       2
Cr    -0.07666111   -3.56193013    0.03193370       3
Co     0.00913807    0.06410780   -3.53378954       4
Cr    -0.05001667    3.71840890    0.10840759       5
Co    -3.60946253    0.10385913    0.03034077       6
Ni    -0.02880195   -1.69576446   -1.70149610       7
Ni     1.70118609    0.02505052    1.75884990       8
Ni    -0.05682319   -1.74200911    1.77480744       9
Cr     1.72302612    0.03113615   -1.73427473      10
Ni     1.67106480    1.78661272    0.00765925      11
Ni    -1.79899494    0.02672594   -1.72328869      12
Ni    -0.07254390    1.80872096    1.74760024      13
Ni    -1.81581582    0.05715621    1.76703466      14
Cr    -0.07873378    1.76142047   -1.73990590      15
Cr    -1.77144280    1.81020143   -0.03242962      16
Co    -1.78649092   -1.70787706    0.02725753      17
Cr     1.70737902   -1.73346911    0.00506352      18
