          18
Lattice="  24.8920   0.0000   0.0000   0.0000  24.8920   0.0000   0.0000   0.0000  24.8920 " ConfE="      -5948.8822" DelE="          0.0000"
Ni    -3.51714028    0.00279928    0.00065449       1
Cr     0.01429989    3.43373690   -0.00174150       2
Cr     0.11188345    0.03200480   -3.49224498       3
Cr    -0.00562118    0.02390638    3.49844678       4
Cr    -0.00239204   -3.61783183    0.03056810       5
Cr     3.47610309   -0.01822891   -0.05267197       6
Ni    -1.75323234    0.01978905   -1.72133578       7
Cr     0.05905857    1.76467263   -1.71746911       8
Co    -0.00293478    1.75299510    1.72014551       9
Co    -1.76944512   -0.01656972    1.76170350      10
Ni    -0.00024994   -1.80290891   -1.75992052      11
Ni     0.02647449   -1.79492261    1.76462870      12
Co     1.82497685    1.73528969    0.00272263      13
Cr    -1.74919955   -1.85748823    0.06954005      14
Co     1.80129098   -0.02298335   -1.81231611      15
Co     1.79536880   -0.03136394    1.78578844      16
Co     1.78818074   -1.79175007   -0.00851700      17
Ni     0.00000000    0.00000000    0.00000000      18
          18
Lattice="  24.8920   0.0000   0.0000   0.0000  24.8920   0.0000   0.0000   0.0000  24.8920 " ConfE="      -5948.3478" DelE="          0.5344"
Ni    -3.48562961    0.00426335   -0.01458128       1
Cr     0.01237636    3.36935577   -0.03009484       2
Cr     0.14188577    0.00917995   -3.53978979       3
Cr    -0.00171794   -0.00897646    3.55826373       4
Cr    -0.01105935   -3.63044761    0.02810960       5
Cr     3.49327817   -0.01536622   -0.05229137       6
Ni    -1.78698243   -0.04700605   -1.89500436       7
Cr     0.13199663    1.76583746   -1.91766034       8
Co     0.08100561    1.77545967    1.95029308       9
Co    -1.78824138   -0.04511199    1.87496934      10
Ni     0.00612130   -1.79613129   -1.76976458      11
Ni     0.01750219   -1.77231075    1.74926442      12
Co     1.76836433    1.71767563    0.01315850      13
Cr    -1.68455930   -1.77027081    0.03770869      14
Co     1.76713076   -0.00862158   -1.79399525      15
Co     1.77145605   -0.02867592    1.76782759      16
Co     1.74188162   -1.74698915   -0.00931559      17
Ni    -0.61399560    0.72713312   -0.03101474      18
          18
Lattice="  24.8920   0.0000   0.0000   0.0000  24.8920   0.0000   0.0000   0.0000  24.8920 " ConfE="      -5949.0004" DelE="         -0.1181"
Ni    -3.55509797   -0.03587516   -0.00055001       1
Cr     0.04747176    3.48754563    0.00104784       2
Cr     0.12932272    0.01835120   -3.51276738       3
Cr     0.01121704    0.00896192    3.53039921       4
Cr     0.00002641   -3.64113310    0.03212248       5
Cr     3.48626624   -0.02670082   -0.05664795       6
Ni    -1.70686754   -0.02918445   -1.72079496       7
Cr     0.11054148    1.71086235   -1.68994191       8
Co     0.02924900    1.70703735    1.73321803       9
Co    -1.74139683   -0.06136590    1.74833515      10
Ni     0.00683422   -1.78684973   -1.72028777      11
Ni     0.03402985   -1.77485647    1.73278072      12
Co     1.75227622    1.70183997   -0.00307755      13
Cr    -1.71166086   -1.81998370    0.08363904      14
Co     1.76785397   -0.01845578   -1.78689591      15
Co     1.78027163   -0.03578302    1.75842941      16
Co     1.76819770   -1.76552225   -0.00412561      17
Ni    -1.74310642    1.70926748   -0.00083861      18
