          18
Lattice="  24.8920   0.0000   0.0000   0.0000  24.8920   0.0000   0.0000   0.0000  24.8920 " ConfE="      -5924.2834" DelE="          0.0000"
Ni    -3.46888733   -0.03069906   -0.00061319       1
Ni     0.00554995    3.55998557    0.01116542       2
Co     0.02400625   -0.06091992   -3.48934850       3
Cr     0.02220871   -0.07171815    3.65686728       4
Co     0.05615189   -3.54849689    0.03466321       5
Cr     3.52595456   -0.00446281    0.05577233       6
Ni    -1.77833385    1.74557452   -0.00121230       7
Ni    -0.02056702    1.75645024   -1.77824645       8
Ni    -1.72958252   -0.00480723    1.82378822       9
Cr    -1.67704020   -1.83999611    0.05371092      10
Ni     1.80738030    0.02791909   -1.74087135      11
Cr     0.03404665   -1.74239361   -1.75082996      12
Ni    -0.00017220    1.76804176    1.83583244      13
Ni     1.77089967    1.78227490    0.02672280      14
Co     0.06559308   -1.75383689    1.80097032      15
Cr     1.77183318   -1.79734357    0.07424298      16
Cr     1.78995794    0.01107439    1.89039424      17
Ni     0.00000000    0.00000000    0.00000000      18
          18
Lattice="  24.8920   0.0000   0.0000   0.0000  24.8920   0.0000   0.0000   0.0000  24.8920 " ConfE="      -5923.7097" DelE="          0.5737"
Ni    -3.45947879   -0.02818965    0.00299677       1
Ni     0.02263916    3.60304260    0.01937827       2
Co     0.01602066   -0.05023099   -3.50833927       3
Cr     0.01289167   -0.07025922    3.66578869       4
Co     0.06660038   -3.58036951    0.04696974       5
Cr     3.52964406   -0.00119456    0.03834753       6
Ni    -1.79083253    1.85559130    0.04663006       7
Ni     0.00806993    1.83155776   -1.77932529       8
Ni    -1.68871184   -0.00626330    1.75143736       9
Cr    -1.71425364   -2.00553096    0.19566800      10
Ni     1.73717766    0.01087291   -1.71880313      11
Cr     0.16639734   -1.90665164   -1.81726993      12
Ni    -0.00107076    1.74824454    1.80790449      13
Ni     1.72330388    1.73382512    0.03008370      14
Co     0.07553830   -1.71497859    1.74481335      15
Cr     1.71945258   -1.74507193    0.07722670      16
Cr     1.76399231   -0.00462687    1.86579111      17
Ni    -1.08480343   -0.15901648   -0.98651751      18
          18
Lattice="  24.8920   0.0000   0.0000   0.0000  24.8920   0.0000   0.0000   0.0000  24.8920 " ConfE="      -5924.1767" DelE="          0.1067"
Ni    -3.51193791   -0.02157943    0.02601492       1
Ni     0.01661840    3.57185204    0.01848725       2
Co     0.04830742   -0.04812918   -3.55544848       3
Cr     0.01782046   -0.07095949    3.68210920       4
Co     0.06444012   -3.57316916    0.04698873       5
Cr     3.54308250    0.00565139    0.04963021       6
Ni    -1.74408933    1.74098145    0.02751320       7
Ni     0.00668501    1.76316591   -1.76047360       8
Ni    -1.70669546   -0.00005734    1.78680175       9
Cr    -1.63716217   -1.80906224    0.06662731      10
Ni     1.75745774    0.01426152   -1.71121381      11
Cr     0.06631529   -1.74215508   -1.70772299      12
Ni     0.01080469    1.74382312    1.83000905      13
Ni     1.73990516    1.73419889    0.04781722      14
Co     0.07570420   -1.68945494    1.73610132      15
Cr     1.74513864   -1.74760335    0.09202944      16
Cr     1.78483642    0.00179457    1.88981622      17
Ni    -1.69686602   -0.03596960   -1.70756997      18
