          18
Lattice="  24.8920   0.0000   0.0000   0.0000  24.8920   0.0000   0.0000   0.0000  24.8920 " ConfE="      -5934.6771" DelE="          0.0000"
Co     0.04431338    0.04159962   -3.48849635       1
Co    -0.01120101   -3.57200108    0.04873521       2
Cr     0.00103447    3.45893109   -0.07823113       3
Co    -0.00105130   -0.01486658    3.55913872       4
Cr    -3.55937390    0.04820494   -0.02791525       5
Co     3.57151587    0.00068379   -0.01509884       6
Ni    -1.78459556   -1.76985551    0.00503756       7
Ni     0.01190214   -1.74880426   -1.74925975       8
Ni     1.76809376   -1.75691904    0.00301778       9
Co    -1.85308515    0.01647321   -1.74662934      10
Ni     1.79979318    1.71160155   -0.06378899      11
Cr    -0.01594594    1.67977680   -1.76873155      12
Cr    -0.03933919   -1.74270463    1.81307740      13
Co    -1.76546547    1.75870489    0.01282972      14
Co     0.02001323    1.76076166    1.75316532      15
Co    -1.78958817   -0.02843766    1.78770984      16
Co     1.81565207   -0.01220744    1.82482903      17
Ni     0.00000000    0.00000000    0.00000000      18
          18
Lattice="  24.8920   0.0000   0.0000   0.0000  24.8920   0.0000   0.0000   0.0000  24.8920 " ConfE="      -5934.0158" DelE="          0.6613"
Co     0.04066920    0.03053209   -3.48101911       1
Co    -0.03345645   -3.62319748    0.05235588       2
Cr     0.02001232    3.56789845    0.05416789       3
Co     0.00918684   -0.01134668    3.56840358       4
Cr    -3.56316695    0.05151278   -0.04837762       5
Co     3.53152507    0.00730110   -0.02432957       6
Ni    -1.76388028   -1.75878609   -0.01828511       7
Ni    -0.03870102   -1.92146423   -1.77288077       8
Ni     1.78332211   -1.87888965    0.03170185       9
Co    -1.78168805    0.02122679   -1.74082009      10
Ni     1.85266405    1.88781956    0.03761710      11
Cr    -0.13285628    1.96756996   -1.76439481      12
Cr    -0.03863961   -1.67739622    1.73443719      13
Co    -1.70313118    1.73731619   -0.00593934      14
Co     0.03656549    1.73558401    1.70149775      15
Co    -1.71092108   -0.03453390    1.72534164      16
Co     1.78229072   -0.02379707    1.76847104      17
Ni     0.81898505    0.07003188   -0.92685807      18
          18
Lattice="  24.8920   0.0000   0.0000   0.0000  24.8920   0.0000   0.0000   0.0000  24.8920 " ConfE="      -5934.7474" DelE="         -0.0703"
Co    -0.00388620    0.03069868   -3.57930187       1
Co    -0.02387897   -3.58981484    0.05429832       2
Cr     0.00013262    3.50464136   -0.06199330       3
Co     0.00588079   -0.01270157    3.59303146       4
Cr    -3.58525864    0.04625436   -0.02171637       5
Co     3.59572866   -0.00157806    0.01834412       6
Ni    -1.75819165   -1.72988972    0.00560126       7
Ni    -0.02385218   -1.74770677   -1.72871921       8
Ni     1.73134165   -1.75842566    0.03653712       9
Co    -1.78172956    0.03289532   -1.74595611      10
Ni     1.77457560    1.72153106   -0.00935243      11
Cr    -0.10604062    1.65557467   -1.66819135      12
Cr    -0.05758816   -1.67723075    1.78278442      13
Co    -1.72125157    1.71524127    0.01612200      14
Co     0.02170227    1.71356600    1.72138717      15
Co    -1.73552256   -0.03894672    1.76788284      16
Co     1.79028693   -0.02407881    1.80709869      17
Ni     1.73868010   -0.02049536   -1.74057019      18
