          18
Lattice="  24.8920   0.0000   0.0000   0.0000  24.8920   0.0000   0.0000   0.0000  24.8920 " ConfE="      -5944.0768" DelE="          0.0000"
Ni    -0.01309785    3.51772307   -0.02715620       1
Cr     3.44906111   -0.03745003   -0.02346609       2
Ni    -0.04225945   -3.58230141    0.01786307       3
Co    -3.57862829   -0.02520747    0.01531789       4
Co    -0.06402549   -0.04669513   -3.56240654       5
Co    -0.01162313   -0.00397308    3.53819074       6
Co    -0.05051113    1.76646206   -1.73965250       7
Cr    -0.00626669    1.76197831    1.71794585       8
Ni     1.72091305    0.02600973   -1.77195513       9
Cr     1.76033642    0.03858114    1.71796982      10
Cr    -1.82825142    1.71430905    0.00546472      11
Co     1.74811306   -1.81243727   -0.03790708      12
Cr    -1.80900496   -1.80348790    0.04187000      13
Ni    -1.81090297   -0.03915663   -1.76416028      14
Cr    -1.82467696   -0.01701846    1.81911975      15
Co    -0.04373873   -1.81062653   -1.80356420      16
Ni    -0.02778257   -1.78523857    1.77700605      17
Ni     0.00000000    0.00000000    0.00000000      18
          18
Lattice="  24.8920   0.0000   0.0000   0.0000  24.8920   0.0000   0.0000   0.0000  24.8920 " ConfE="      -5943.4880" DelE="          0.5888"
Ni    -0.00630385    3.48146854   -0.00923448       1
Cr     3.37464810   -0.00994315   -0.01642516       2
Ni    -0.02873665   -3.57732493    0.02161639       3
Co    -3.58020624   -0.02224437    0.01189051       4
Co    -0.06929232   -0.04920683   -3.59880096       5
Co    -0.00924872   -0.01679068    3.56993536       6
Co    -0.05514668    1.78600842   -1.83677454       7
Cr    -0.06546679    1.88000766    1.96393369       8
Ni     1.72411090   -0.00385878   -1.86701116       9
Cr     1.88274815   -0.10251529    1.90988125      10
Cr    -1.74819529    1.61864757    0.01736163      11
Co     1.71754823   -1.75499396   -0.03796437      12
Cr    -1.68021367   -1.66041725    0.03622704      13
Ni    -1.78262086   -0.02609198   -1.77664882      14
Cr    -1.76609212    0.00132393    1.80945752      15
Co    -0.03433661   -1.78285193   -1.79263052      16
Ni    -0.00169353   -1.75532684    1.77487672      17
Ni     0.62424672    0.63612302    0.14399361      18
          18
Lattice="  24.8920   0.0000   0.0000   0.0000  24.8920   0.0000   0.0000   0.0000  24.8920 " ConfE="      -5944.0892" DelE="         -0.0124"
Ni    -0.03999617    3.55779676   -0.02454912       1
Cr     3.48641573   -0.06401636   -0.01398773       2
Ni    -0.04495959   -3.59240330    0.02251652       3
Co    -3.60027336   -0.03008559    0.01048120       4
Co    -0.07383410   -0.05315248   -3.58585858       5
Co    -0.01864478   -0.01659567    3.57313674       6
Co    -0.08484436    1.73944424   -1.72201188       7
Cr    -0.05167290    1.70020567    1.71769926       8
Ni     1.68868388   -0.00553793   -1.77679708       9
Cr     1.71776660   -0.02440100    1.72116220      10
Cr    -1.73882459    1.62186570    0.00054169      11
Co     1.69937223   -1.74091330   -0.02353153      12
Cr    -1.76266882   -1.74024961    0.02619811      13
Ni    -1.78586784   -0.04740113   -1.75011670      14
Cr    -1.80250494   -0.02916777    1.79907784      15
Co    -0.05160867   -1.79709211   -1.77942598      16
Ni    -0.04209921   -1.76210481    1.75580596      17
Ni     1.69685416    1.72938317   -0.01168882      18
