          18
Lattice="  24.8920   0.0000   0.0000   0.0000  24.8920   0.0000   0.0000   0.0000  24.8920 " ConfE="      -5938.0965" DelE="          0.0000"
Cr    -0.04258189   -0.07764965   -3.34973505       1
Cr    -0.03214938    3.33744751   -0.04850754       2
Ni    -0.04919276   -0.12198675    3.61340300       3
Co     3.55013099   -0.10160420    0.08246708       4
Cr    -0.00604270   -3.74669541    0.02136528       5
Cr    -3.59661870   -0.09624990    0.04256540       6
Ni     1.75849570   -0.13258879   -1.70905807       7
Co     1.72408576    1.66341707    0.01835676       8
Ni    -0.03185639   -1.88568768    1.79743971       9
Co    -1.73082076   -0.09942442   -1.69090104      10
Co    -1.75843646    1.64968469   -0.00554906      11
Ni     1.76933742   -1.90248222    0.06402425      12
Ni    -1.78452833   -1.88896251    0.06193287      13
Cr    -0.03431471    1.64572767    1.79830041      14
Cr    -0.05137422   -1.95256426   -1.67892497      15
Cr     1.76877679   -0.14069005    1.80248429      16
Cr    -1.83914727   -0.05310387    1.77862276      17
Cr     0.00000000    0.00000000    0.00000000      18
          18
Lattice="  24.8920   0.0000   0.0000   0.0000  24.8920   0.0000   0.0000   0.0000  24.8920 " ConfE="      -5937.2190" DelE="          0.8775"
Cr    -0.04457471   -0.12916210   -3.35441291       1
Cr    -0.04783065    3.37178292   -0.02758071       2
Ni    -0.04514518   -0.14430973    3.53314193       3
Co     3.66926926   -0.10420697    0.09554779       4
Cr    -0.02000368   -3.65020098    0.07130238       5
Cr    -3.75506530   -0.09898242    0.03800542       6
Ni     1.88178736   -0.20051752   -1.68399792       7
Co     1.90461362    1.65802972    0.08399542       8
Ni    -0.01078205   -1.23412706    1.16740548       9
Co    -1.85441195   -0.15014379   -1.66740268      10
Co    -1.92969671    1.65004955    0.03650881      11
Ni     1.93632681   -1.90789934    0.04487429      12
Ni    -1.97219913   -1.89971719    0.04380341      13
Cr    -0.02831570    1.53651178    1.69585381      14
Cr    -0.05295155   -1.87873629   -1.56782568      15
Cr     1.90572653   -0.08886989    1.77144879      16
Cr    -1.96428204   -0.00081828    1.72130320      17
Cr     0.00728306    0.78098209   -0.73696159      18
          18
Lattice="  24.8920   0.0000   0.0000   0.0000  24.8920   0.0000   0.0000   0.0000  24.8920 " ConfE="      -5937.9250" DelE="          0.1715"
Cr    -0.05017206   -0.14908056   -3.42306047       1
Cr    -0.05075352    3.43783076    0.03322985       2
Ni    -0.04952179   -0.14997384    3.52644620       3
Co     3.62575977   -0.10029757    0.09278831       4
Cr    -0.02641527   -3.64505260    0.07778534       5
Cr    -3.70349331   -0.09328261    0.02516216       6
Ni     1.74166733   -0.15542381   -1.64237386       7
Co     1.74365815    1.60600066    0.09771869       8
Ni    -0.02408741   -1.19528048    1.16018696       9
Co    -1.75510622   -0.14955647   -1.64754700      10
Co    -1.78976634    1.57650249    0.05579598      11
Ni     1.91726894   -1.91643022    0.05255627      12
Ni    -1.98023457   -1.91194138    0.06644427      13
Cr    -0.02384381    1.49507975    1.63070679      14
Cr    -0.07501065   -1.84516673   -1.55660589      15
Cr     1.94823261   -0.19196684    1.85590780      16
Cr    -2.02659178   -0.05176543    1.81179157      17
Cr    -0.02119265    1.58631954   -1.53082727      18
