          18
Lattice="  24.8920   0.0000   0.0000   0.0000  24.8920   0.0000   0.0000   0.0000  24.8920 " ConfE="      -5929.4405" DelE="          0.0000"
Cr    -3.52173913    0.04187988    0.00502039       1
Cr    -0.01766379   -3.44838790    0.00060784       2
Ni     3.60463330    0.09171882   -0.04716847       3
Co     0.05873930    3.66457980    0.02802418       4
Co     0.05355117    0.02827775   -3.61416690       5
Cr    -0.00138114    0.07384532    3.42355527       6
Ni    -1.72066991    0.08426111   -1.78238182       7
Co    -1.77379878    0.02606795    1.64317909       8
Cr    -0.03345448   -1.69050844   -1.66570861       9
Cr     0.00079790   -1.65167796    1.66750847      10
Co    -1.75627061    1.90749437   -0.00792854      11
Ni     1.87002086   -1.71656721   -0.02515006      12
Co     1.81226116    1.86269265   -0.00276825      13
Ni     0.04180420    1.84371172   -1.75952548      14
Cr     0.00300784    1.86199230    1.65163410      15
Cr     1.79036802    0.03563832   -1.79880329      16
Ni     1.82083894    0.08194142    1.72423703      17
Co     0.00000000    0.00000000    0.00000000      18
          18
Lattice="  24.8920   0.0000   0.0000   0.0000  24.8920   0.0000   0.0000   0.0000  24.8920 " ConfE="      -5929.0013" DelE="          0.4392"
Cr    -3.41152047   -0.00992327    0.00265188       1
Cr    -0.04347079   -3.39382017   -0.00306028       2
Ni     3.59850210    0.08081036   -0.04433702       3
Co     0.05143403    3.65423270    0.02676336       4
Co     0.06265463    0.04546039   -3.68763388       5
Cr     0.00907060    0.10049353    3.49513727       6
Ni    -1.73695637    0.11072782   -1.92426440       7
Co    -1.76398711    0.10079499    1.83336571       8
Cr     0.03103558   -1.72572298   -1.92401960       9
Cr     0.08124348   -1.69077589    1.87652457      10
Co    -1.71161144    1.81626946   -0.00135133      11
Ni     1.78454445   -1.68873064   -0.03939050      12
Co     1.77981269    1.83765410   -0.00344187      13
Ni     0.03919654    1.80640952   -1.76175168      14
Cr     0.00133517    1.80072037    1.62083482      15
Cr     1.73807230    0.03099289   -1.76970240      16
Ni     1.76492196    0.07653231    1.69745263      17
Co    -0.69442908   -0.78184492   -0.00942780      18
          18
Lattice="  24.8920   0.0000   0.0000   0.0000  24.8920   0.0000   0.0000   0.0000  24.8920 " ConfE="      -5929.6126" DelE="         -0.1721"
Cr    -3.55408846    0.06205355    0.00412493       1
Cr     0.02757357   -3.50771144    0.01834456       2
Ni     3.61414724    0.09143009   -0.04568987       3
Co     0.06250812    3.68490088    0.03160012       4
Co     0.06106044    0.03501238   -3.63672008       5
Cr     0.00998741    0.09190097    3.46057532       6
Ni    -1.68727433    0.10233899   -1.76604600       7
Co    -1.68059938    0.09395915    1.66094317       8
Cr     0.02230684   -1.65674158   -1.69961937       9
Cr     0.03780382   -1.61727718    1.69134287      10
Co    -1.73719141    1.89069213    0.00248755      11
Ni     1.81666152   -1.68606681   -0.03181103      12
Co     1.81533338    1.87055668    0.00624553      13
Ni     0.05553094    1.82291942   -1.72401411      14
Cr     0.01527024    1.84540500    1.61036016      15
Cr     1.77021579    0.04314110   -1.78201626      16
Ni     1.77888220    0.09461655    1.69230541      17
Co    -1.64730940   -1.66810070   -0.01457344      18
