          18
Lattice="  24.8920   0.0000   0.0000   0.0000  24.8920   0.0000   0.0000   0.0000  24.8920 " ConfE="      -5943.0003" DelE="          0.0000"
Ni    -0.01324460    3.48990403   -0.00057662       1
Ni     3.55586222   -0.00171348    0.01337963       2
Ni    -0.01148968   -3.54618008    0.02928398       3
Ni     0.00318115    0.00645094    3.60125371       4
Cr    -0.02252731   -0.10245387   -3.52231487       5
Co    -3.53529957   -0.00274539    0.02539745       6
Ni    -1.74831647    1.76027214    0.00344253       7
Ni     1.79073796    1.76572654    0.02617881       8
Ni     1.73898864    0.01509283   -1.76213502       9
Co    -1.77827235    0.00547625   -1.77482441      10
Ni    -1.77253634   -1.76703867    0.02778454      11
Ni     1.78692767   -0.01694157    1.79179141      12
Co    -1.77084871    0.01610280    1.86663271      13
Co     0.00553950    1.77099220    1.85636730      14
Co    -0.01953243   -1.81064704   -1.76281514      15
Cr     1.78382881   -1.80632971   -0.01812921      16
Cr    -0.01545730   -1.75314811    1.80760497      17
Ni     0.00000000    0.00000000    0.00000000      18
          18
Lattice="  24.8920   0.0000   0.0000   0.0000  24.8920   0.0000   0.0000   0.0000  24.8920 " ConfE="      -5942.1712" DelE="          0.8290"
Ni    -0.01908246    3.43207662   -0.00917379       1
Ni     3.62245948   -0.00395806    0.03037332       2
Ni    -0.00561151   -3.53870072    0.01802305       3
Ni     0.01216380    0.01438794    3.61052415       4
Cr    -0.00012006   -0.09112879   -3.49286960       5
Co    -3.57969803   -0.01628823    0.05156615       6
Ni    -1.88993942    1.77780903    0.09993300       7
Ni     1.87349053    1.76698909    0.04353984       8
Ni     1.92463719   -0.03813336   -1.79140245       9
Co    -2.01737302   -0.14561368   -1.85126325      10
Ni    -1.74227077   -1.71986907    0.02985539      11
Ni     1.78241107    0.00655817    1.76038584      12
Co    -1.75671596    0.01645112    1.86275318      13
Co     0.00008969    1.74661534    1.82126267      14
Co     0.00883992   -1.72442296   -1.72374277      15
Cr     1.74443762   -1.74151509   -0.01380371      16
Cr     0.00346353   -1.62721181    1.68919772      17
Ni    -0.08711379    0.90112858   -1.06610209      18
          18
Lattice="  24.8920   0.0000   0.0000   0.0000  24.8920   0.0000   0.0000   0.0000  24.8920 " ConfE="      -5942.8907" DelE="          0.1096"
Ni    -0.00557878    3.52542496    0.03506586       1
Ni     3.57154904   -0.00335250    0.01588175       2
Ni    -0.01331498   -3.56090253    0.02933577       3
Ni     0.01279884    0.00867752    3.61870384       4
Cr    -0.01322189   -0.11311790   -3.56110754       5
Co    -3.55551222   -0.00754669    0.04067822       6
Ni    -1.73046827    1.72212695    0.05107090       7
Ni     1.78509855    1.75052904    0.03664159       8
Ni     1.74891569   -0.01431212   -1.73253740       9
Co    -1.80222136   -0.01266100   -1.75918145      10
Ni    -1.73437383   -1.72626803    0.04123490      11
Ni     1.76896741   -0.01803876    1.76451327      12
Co    -1.74802898    0.00607044    1.87177920      13
Co     0.01642254    1.74877122    1.83085324      14
Co    -0.00933369   -1.74861806   -1.71329709      15
Cr     1.74407784   -1.78967235   -0.00287245      16
Cr    -0.00045212   -1.68747627    1.74468770      17
Ni    -0.01055342    1.72427401   -1.74104447      18
