          18
Lattice="  24.8920   0.0000   0.0000   0.0000  24.8920   0.0000   0.0000   0.0000  24.8920 " ConfE="      -5949.7850" DelE="          0.0000"
Co    -0.01566162   -3.41695911    0.00097596       1
Cr     3.52868455    0.01671832    0.00675666       2
Cr    -0.03361034    3.59830238    0.05876511       3
Ni    -3.59030555    0.03622367    0.02342512       4
Ni    -0.01942247    0.06858590   -3.51444541       5
Co     0.01313988    0.02047452    3.57142171       6
Cr    -0.02093008   -1.81042658   -1.78818826       7
Ni    -0.01086335   -1.73365724    1.78028854       8
Ni     1.71498903    0.02655990   -1.73134150       9
Cr     1.76500888   -0.08794660    1.78882010      10
Ni    -1.82539070   -1.72069948    0.00910770      11
Ni     1.74783365    1.82445263    0.04922324      12
Co    -1.78231441    1.81842388    0.03777157      13
Cr    -1.76939850    0.05838962   -1.75787210      14
Ni    -1.82358963    0.02751154    1.80198804      15
Cr    -0.04844724    1.90814512   -1.73125738      16
Ni    -0.03141324    1.77962456    1.80996317      17
Ni     0.00000000    0.00000000    0.00000000      18
          18
Lattice="  24.8920   0.0000   0.0000   0.0000  24.8920   0.0000   0.0000   0.0000  24.8920 " ConfE="      -5949.2414" DelE="          0.5436"
Co    -0.02191670   -3.45582002    0.03222474       1
Cr     3.51934748    0.01886391   -0.02877111       2
Cr    -0.00701219    3.60768125    0.05285927       3
Ni    -3.57964207    0.02671198    0.02231677       4
Ni    -0.05166321    0.09534267   -3.59050101       5
Co     0.00805284    0.02830538    3.60637987       6
Cr    -0.07651147   -1.78753302   -1.93199439       7
Ni    -0.07211328   -1.77331936    1.90839267       8
Ni     1.70816661    0.14398450   -1.90053053       9
Cr     1.74789018   -0.02642296    1.96001498      10
Ni    -1.72851450   -1.68486106   -0.00281450      11
Ni     1.71646785    1.73839798    0.04465944      12
Co    -1.73065144    1.77230845    0.01401971      13
Cr    -1.65274070    0.07774917   -1.68475782      14
Ni    -1.78679344    0.01675043    1.79037356      15
Cr    -0.06610686    1.87171982   -1.70724096      16
Ni    -0.02503440    1.74545996    1.78854284      17
Ni     1.09119053   -1.07900229   -0.00477756      18
          18
Lattice="  24.8920   0.0000   0.0000   0.0000  24.8920   0.0000   0.0000   0.0000  24.8920 " ConfE="      -5949.7995" DelE="         -0.0145"
Co    -0.05342681   -3.48255916    0.02699386       1
Cr     3.58654947    0.05947053   -0.02756122       2
Cr    -0.01986685    3.62011767    0.05718978       3
Ni    -3.59894701    0.03682372    0.02033249       4
Ni    -0.02989767    0.08687721   -3.54580502       5
Co     0.00309454    0.03095074    3.59427192       6
Cr    -0.05347276   -1.75570254   -1.81059062       7
Ni    -0.03323401   -1.70162811    1.77570343       8
Ni     1.66277928    0.06854625   -1.73198520       9
Cr     1.72705079   -0.03901900    1.83092997      10
Ni    -1.76851669   -1.68338769   -0.00385365      11
Ni     1.72064950    1.77914693    0.05108938      12
Co    -1.73734142    1.78031320    0.00753239      13
Cr    -1.70056888    0.08495963   -1.70147796      14
Ni    -1.81255471    0.03591937    1.78952827      15
Cr    -0.07070792    1.89653381   -1.71163908      16
Ni    -0.03691820    1.76377295    1.79029628      17
Ni     1.71121835   -1.68402587    0.00821803      18
