          18
Lattice="  24.8920   0.0000   0.0000   0.0000  24.8920   0.0000   0.0000   0.0000  24.8920 " ConfE="      -5936.8052" DelE="          0.0000"
Ni     3.50519904    0.00609244    0.07405062       1
Ni     0.01105868    0.01587762   -3.40616408       2
Ni    -3.58300009   -0.00795342    0.09159927       3
Ni    -0.01593833   -3.53083909    0.06613807       4
Ni    -0.03499507    3.52955056    0.10090030       5
Co    -0.02782997   -0.02368634    3.67520865       6
Ni     1.73727936    0.00551873    1.86679192       7
Ni    -0.01313967   -1.75801987    1.83695205       8
Ni    -0.04894685    1.74943506    1.85249607       9
Co     1.72328932   -1.72874308   -0.01936761      10
Co     1.74175878    1.78374868    0.04686778      11
Cr     0.13101213   -1.70745340   -1.71464408      12
Co    -0.01894604    1.75742233   -1.66228092      13
Ni    -1.78842123   -1.75469417    0.05344964      14
Co    -1.80895913   -0.00152012    1.86856586      15
Co    -1.81784227   -0.00984381   -1.69118476      16
Cr    -1.75403861    1.70262586    0.02012133      17
Co     0.00000000    0.00000000    0.00000000      18
          18
Lattice="  24.8920   0.0000   0.0000   0.0000  24.8920   0.0000   0.0000   0.0000  24.8920 " ConfE="      -5936.3427" DelE="          0.4625"
Ni     3.49910382   -0.00277583    0.07526151       1
Ni     0.00050036    0.03191186   -3.39485202       2
Ni    -3.58709719   -0.01044152    0.08840577       3
Ni    -0.03112275   -3.56663936    0.06386386       4
Ni    -0.04513818    3.57450173    0.11409279       5
Co    -0.02377184   -0.02709777    3.66260629       6
Ni     1.71681326    0.00102268    1.80650590       7
Ni    -0.01671629   -1.73896738    1.79453006       8
Ni    -0.05290452    1.73218154    1.80385211       9
Co     1.81943518   -1.91997951    0.11796613      10
Co     1.77378040    1.89680141    0.08873054      11
Cr     0.03333012   -1.86406311   -1.77070026      12
Co    -0.07497605    1.92229477   -1.70296974      13
Ni    -1.75318320   -1.73962229    0.04743516      14
Co    -1.80791252    0.00613848    1.85800093      15
Co    -1.71631702    0.02334786   -1.61290356      16
Cr    -1.72868113    1.68726507    0.01899332      17
Co     0.88237268   -0.03685806   -0.90731701      18
          18
Lattice="  24.8920   0.0000   0.0000   0.0000  24.8920   0.0000   0.0000   0.0000  24.8920 " ConfE="      -5936.7504" DelE="          0.0547"
Ni     3.54250401    0.00289547    0.09571634       1
Ni    -0.03612556    0.03056124   -3.45275589       2
Ni    -3.59748131   -0.01028711    0.09383710       3
Ni    -0.02209137   -3.55250029    0.07158845       4
Ni    -0.04020666    3.54327456    0.10761717       5
Co    -0.03093739   -0.02265560    3.68224320       6
Ni     1.72042731    0.00600351    1.83021785       7
Ni    -0.02241435   -1.73520737    1.81987622       8
Ni    -0.06048529    1.72489907    1.81960516       9
Co     1.70390957   -1.75718130    0.03857371      10
Co     1.73754540    1.78840520    0.07121081      11
Cr     0.11076094   -1.71861319   -1.70651884      12
Co    -0.05701374    1.70290498   -1.57643711      13
Ni    -1.74932030   -1.71881544    0.05315145      14
Co    -1.82494416    0.00874682    1.87728827      15
Co    -1.77345878   -0.00061429   -1.64712986      16
Cr    -1.76154944    1.68459867    0.02921185      17
Co     1.70687911   -0.03351934   -1.64096252      18
