          18
Lattice="  24.8920   0.0000   0.0000   0.0000  24.8920   0.0000   0.0000   0.0000  24.8920 " ConfE="      -5932.5620" DelE="          0.0000"
Co    -0.05261834    3.46973207    0.00397139       1
Cr     0.01074425   -0.04147310   -3.41132225       2
Co    -0.03107173   -3.63471852    0.08714784       3
Co     0.00489561   -0.04503427    3.61121352       4
Cr    -3.61644015   -0.09666684    0.06344514       5
Cr     3.57738141   -0.09974200    0.09772993       6
Ni    -1.77731857    1.69077198    0.02921956       7
Cr     1.66781256    1.72644942    0.08207834       8
Co    -1.77817886   -0.04303659   -1.70109074       9
Co     1.76895984   -0.06718018   -1.66453288      10
Co    -0.01843412    1.71342711    1.85032046      11
Ni    -0.01293195   -1.87674098   -1.68143705      12
Ni    -0.01900487   -1.85062788    1.83460019      13
Co    -1.78313427   -0.07246107    1.82829623      14
Ni     1.74728515   -0.08953865    1.84696788      15
Cr    -1.82186680   -1.82669503    0.07380984      16
Co     1.75562436   -1.84815797    0.07403455      17
Cr     0.00000000    0.00000000    0.00000000      18
          18
Lattice="  24.8920   0.0000   0.0000   0.0000  24.8920   0.0000   0.0000   0.0000  24.8920 " ConfE="      -5931.9783" DelE="          0.5837"
Co    -0.05991181    3.42356867    0.01163252       1
Cr     0.04230235   -0.07127180   -3.44851596       2
Co    -0.02841600   -3.62371700    0.07484729       3
Co     0.00964522   -0.03742010    3.61233493       4
Cr    -3.71219415   -0.13163200    0.09450703       5
Cr     3.65397726   -0.12927198    0.11607178       6
Ni    -1.94809335    1.69407209    0.12167255       7
Cr     1.82024048    1.75737739    0.15003804       8
Co    -1.90632071   -0.06826921   -1.69624418       9
Co     1.89553451   -0.10373191   -1.68821681      10
Co    -0.02308486    1.68691338    1.78676886      11
Ni    -0.01828381   -1.77644193   -1.65596838      12
Ni    -0.01900044   -1.82277161    1.80122616      13
Co    -1.77762670   -0.08326633    1.78967988      14
Ni     1.72495896   -0.08045888    1.78703418      15
Cr    -1.76065734   -1.71865974    0.08156485      16
Co     1.75035160   -1.82123596    0.05944196      17
Cr    -0.00223600    0.76948691   -0.72406931      18
          18
Lattice="  24.8920   0.0000   0.0000   0.0000  24.8920   0.0000   0.0000   0.0000  24.8920 " ConfE="      -5932.5072" DelE="          0.0548"
Co    -0.06411286    3.54452275    0.04980618       1
Cr     0.02372243   -0.12031568   -3.48915436       2
Co    -0.02978719   -3.65756586    0.09367346       3
Co     0.00507883   -0.05187685    3.63207382       4
Cr    -3.63049871   -0.11388746    0.06911317       5
Cr     3.61169495   -0.12398089    0.12323817       6
Ni    -1.77381457    1.65204925    0.06697737       7
Cr     1.66985050    1.71424787    0.17567034       8
Co    -1.78441073   -0.08513236   -1.66959459       9
Co     1.77760485   -0.09287073   -1.63025123      10
Co    -0.00801338    1.68872255    1.80229571      11
Ni    -0.01286141   -1.82890185   -1.63495174      12
Ni    -0.02335377   -1.85135457    1.82429791      13
Co    -1.78179952   -0.10042267    1.81505346      14
Ni     1.72627895   -0.10976650    1.82773276      15
Cr    -1.79768954   -1.80427122    0.10104267      16
Co     1.75622655   -1.85466799    0.08016702      17
Cr     0.03899283    1.55409858   -1.56874718      18
