          18
Lattice="  24.8920   0.0000   0.0000   0.0000  24.8920   0.0000   0.0000   0.0000  24.8920 " ConfE="      -5946.3416" DelE="          0.0000"
Ni     0.00870207   -3.58873701   -0.02644028       1
Co    -3.48810145   -0.00896011    0.05244529       2
Co     0.01772539    3.50037159    0.03070038       3
Co     3.56621910   -0.01626722   -0.04490853       4
Co     0.03740215   -0.02577025   -3.55180451       5
Co     0.02866990   -0.03114434    3.56680246       6
Ni    -1.74987502   -1.80804414    0.00225826       7
Co    -1.67725209    0.00853950   -1.73574539       8
Cr    -1.72074367    0.02593269    1.74387836       9
Cr     0.02108975    1.73799108   -1.66104910      10
Co     0.00185306    1.73539019    1.74550674      11
Cr     0.06471693   -1.81104777   -1.77257100      12
Co     0.05908265   -1.80164125    1.75933641      13
Co     1.79456444   -1.81753795   -0.04628294      14
Co     1.82358172    1.72354864   -0.01074222      15
Cr     1.76310992   -0.00522229   -1.75349920      16
Cr     1.79635878   -0.02604397    1.72719017      17
Co     0.00000000    0.00000000    0.00000000      18
          18
Lattice="  24.8920   0.0000   0.0000   0.0000  24.8920   0.0000   0.0000   0.0000  24.8920 " ConfE="      -5945.6388" DelE="          0.7028"
Ni     0.00138970   -3.59908413   -0.03299985       1
Co    -3.44897914    0.00574680    0.04306849       2
Co     0.01021583    3.49073667    0.04740748       3
Co     3.56762483   -0.01099040   -0.04068764       4
Co     0.06568837   -0.04362637   -3.61946400       5
Co     0.05495011   -0.04611050    3.62865727       6
Ni    -1.70998766   -1.74592367    0.00059430       7
Co    -1.67845789   -0.09884782   -1.89891714       8
Cr    -1.65484806   -0.04583456    1.87954357       9
Cr     0.08520187    1.74091333   -1.82554665      10
Co     0.10020202    1.79406527    1.94261094      11
Cr     0.05239047   -1.75900122   -1.75077638      12
Co     0.06839617   -1.76620277    1.73707400      13
Co     1.76986738   -1.80633739   -0.05735824      14
Co     1.71279668    1.67022560   -0.00186322      15
Cr     1.69527528   -0.01169119   -1.65821617      16
Cr     1.70117189   -0.03202713    1.63812329      17
Co    -0.96189219    1.02600970    0.01376589      18
          18
Lattice="  24.8920   0.0000   0.0000   0.0000  24.8920   0.0000   0.0000   0.0000  24.8920 " ConfE="      -5946.1731" DelE="          0.1685"
Ni     0.00627826   -3.60474724   -0.03405149       1
Co    -3.53202389   -0.04252959    0.04458042       2
Co     0.03325868    3.55021836    0.04918572       3
Co     3.58135502   -0.01851775   -0.04405666       4
Co     0.04727978   -0.03527202   -3.57549466       5
Co     0.04505634   -0.03501828    3.59300628       6
Ni    -1.71289350   -1.76384579    0.00523976       7
Co    -1.62423919   -0.02673058   -1.72609810       8
Cr    -1.62446334   -0.00689164    1.74593488       9
Cr     0.03234745    1.68210226   -1.65256147      10
Co     0.03515258    1.71093918    1.75192681      11
Cr     0.06660315   -1.78086524   -1.75455367      12
Co     0.07063192   -1.76987660    1.72861122      13
Co     1.77360732   -1.80571351   -0.06193112      14
Co     1.76399426    1.68170497   -0.01684065      15
Cr     1.72561331   -0.01711341   -1.67258977      16
Cr     1.72996439   -0.03698746    1.64327222      17
Co    -1.70205279    1.67420240    0.01999173      18
