          18
Lattice="  24.8920   0.0000   0.0000   0.0000  24.8920   0.0000   0.0000   0.0000  24.8920 " ConfE="      -5938.0410" DelE="          0.0000"
Cr     3.52721301    0.03644368   -0.04872629       1
Co    -0.00039006   -0.01814353   -3.53622910       2
Ni    -0.03258218    3.56413183   -0.05332513       3
Cr    -0.02364741   -3.41829029   -0.02940825       4
Cr    -0.04953692    0.07037827    3.47070140       5
Co    -3.56968770    0.03033335   -0.03951615       6
Ni     1.74221389    1.79470592   -0.00909541       7
Ni    -0.01930293    1.76503272   -1.79781068       8
Ni     1.79773185   -1.69799053   -0.06755569       9
Co     0.00126999   -1.75263765   -1.76733288      10
Ni     1.77400068    0.06120719    1.76880384      11
Ni    -1.79600885   -0.00719383   -1.82110941      12
Ni    -1.82448386    1.77593501   -0.05507396      13
Ni    -1.81015386   -1.75873391   -0.03610887      14
Cr    -0.10566874    1.76227562    1.72259027      15
Cr    -0.03003245   -1.66937573    1.68851937      16
Co    -1.79968517    0.02342042    1.76513475      17
Co     0.00000000    0.00000000    0.00000000      18
          18
Lattice="  24.8920   0.0000   0.0000   0.0000  24.8920   0.0000   0.0000   0.0000  24.8920 " ConfE="      -5937.2331" DelE="          0.8078"
Cr     3.40914117    0.02825836   -0.15491194       1
Co     0.01955783   -0.01295281   -3.47151176       2
Ni    -0.03576094    3.61276915   -0.03978892       3
Cr    -0.04121593   -3.50402028    0.00021961       4
Cr    -0.01499680    0.07156142    3.49887039       5
Co    -3.55147969    0.03605456   -0.04319013       6
Ni     1.75215122    1.92021227    0.04170008       7
Ni    -0.04786231    1.92076526   -1.84327855       8
Ni     1.81802922   -1.87763952    0.01298186       9
Co    -0.06722641   -1.92596125   -1.82461406      10
Ni     1.75956132    0.05894865    1.70623845      11
Ni    -1.73215458    0.00112073   -1.79294074      12
Ni    -1.76720821    1.76403453   -0.06139094      13
Ni    -1.73574141   -1.73703116   -0.04316221      14
Cr    -0.10703688    1.70959051    1.69923844      15
Cr    -0.00805740   -1.63083677    1.64375853      16
Co    -1.71775515    0.01538226    1.72603953      17
Co     0.72535557   -0.03072988   -0.82073269      18
          18
Lattice="  24.8920   0.0000   0.0000   0.0000  24.8920   0.0000   0.0000   0.0000  24.8920 " ConfE="      -5938.2272" DelE="         -0.1862"
Cr     3.55433528    0.04666829   -0.01931621       1
Co    -0.00929875   -0.02025664   -3.57943450       2
Ni    -0.03516639    3.57290998   -0.04897145       3
Cr    -0.04513210   -3.47295151   -0.00134588       4
Cr    -0.04036374    0.07429578    3.51638562       5
Co    -3.57432557    0.03158903   -0.04296372       6
Ni     1.71379900    1.78376621   -0.00116051       7
Ni    -0.02363267    1.75358122   -1.78706062       8
Ni     1.74221282   -1.71062913   -0.01528599       9
Co    -0.00199933   -1.74064719   -1.75634279      10
Ni     1.73336119    0.05921178    1.73969586      11
Ni    -1.76175673   -0.01311550   -1.81234962      12
Ni    -1.80011052    1.75159036   -0.05563001      13
Ni    -1.77217545   -1.74580262   -0.03474879      14
Cr    -0.11859277    1.70817953    1.71233123      15
Cr    -0.04945614   -1.63859321    1.68785317      16
Co    -1.73703273    0.01451031    1.74186280      17
Co     1.82738853   -0.02673892   -1.81537031      18
