          18
Lattice="  24.8920   0.0000   0.0000   0.0000  24.8920   0.0000   0.0000   0.0000  24.8920 " ConfE="      -5950.2378" DelE="          0.0000"
Ni     0.00679910   -3.46742721   -0.00271800       1
Ni     3.51612175   -0.07074010   -0.00886600       2
Cr     0.00986274    3.56879980   -0.00645867       3
Cr    -3.48773503   -0.01361392   -0.01881216       4
Ni    -0.02785730   -0.01131769   -3.57015356       5
Ni     0.01922166    0.02409561    3.53913225       6
Ni    -0.02597656   -1.75232028   -1.78566128       7
Ni     0.02095013   -1.75129855    1.74482071       8
Ni     1.76436694   -0.07347670   -1.74423847       9
Ni     1.79029915   -0.02870759    1.74618948      10
Co    -1.83209361   -1.73986754   -0.00043831      11
Ni     1.74308083    1.78571611   -0.00280186      12
Co    -1.76192685    1.83190092   -0.04096185      13
Co    -1.79275963    0.03960751   -1.79556023      14
Co    -1.79943391    0.04838619    1.77350752      15
Cr    -0.05155961    1.77432168   -1.77023721      16
Co    -0.05324304    1.82107966    1.73823552      17
Ni     0.00000000    0.00000000    0.00000000      18
          18
Lattice="  24.8920   0.0000   0.0000   0.0000  24.8920   0.0000   0.0000   0.0000  24.8920 " ConfE="      -5949.4369" DelE="          0.8009"
Ni     0.01440744   -3.43333041    0.00224835       1
Ni     3.49265050   -0.06334429   -0.01259383       2
Cr     0.02154575    3.57505893   -0.01683379       3
Cr    -3.48854061   -0.03014650   -0.01570179       4
Ni    -0.03763631    0.00805146   -3.63318306       5
Ni     0.00533671    0.03623621    3.62251146       6
Ni    -0.06972253   -1.77128222   -1.93383576       7
Ni    -0.04334834   -1.75878637    1.89181940       8
Ni     1.79499781    0.00654308   -1.94098992       9
Ni     1.78494016    0.03947134    1.90278095      10
Co    -1.76523398   -1.70356466   -0.00542058      11
Ni     1.67875978    1.67812020   -0.00468945      12
Co    -1.71818007    1.79155313   -0.04598835      13
Co    -1.73378392    0.03985763   -1.77197915      14
Co    -1.76436535    0.03917635    1.75599460      15
Cr    -0.05998964    1.71797010   -1.74322291      16
Co    -0.05745419    1.77784909    1.73243121      17
Ni     1.12843766   -1.09218732   -0.02500799      18
          18
Lattice="  24.8920   0.0000   0.0000   0.0000  24.8920   0.0000   0.0000   0.0000  24.8920 " ConfE="      -5950.0513" DelE="          0.1865"
Ni    -0.02577267   -3.50665340   -0.00078313       1
Ni     3.55107356   -0.01048427    0.00228744       2
Cr     0.00754982    3.59831493   -0.00670931       3
Cr    -3.49230386   -0.02579365   -0.02093791       4
Ni    -0.02985392   -0.00493497   -3.58153237       5
Ni     0.01148977    0.02488637    3.56361265       6
Ni    -0.03599140   -1.72643131   -1.76694964       7
Ni    -0.01921232   -1.71566880    1.73723564       8
Ni     1.72595275   -0.01197384   -1.74592682       9
Ni     1.74671866    0.01349846    1.75950416      10
Co    -1.79960430   -1.70461838   -0.00740136      11
Ni     1.68584902    1.75487918   -0.00051232      12
Co    -1.71988367    1.79719460   -0.04930542      13
Co    -1.75966336    0.05126034   -1.76926190      14
Co    -1.78620110    0.05237433    1.74652168      15
Cr    -0.07560450    1.77098766   -1.74762427      16
Co    -0.06619308    1.79703456    1.72375807      17
Ni     1.75471735   -1.73821093    0.01035957      18
