          18
Lattice="  24.8920   0.0000   0.0000   0.0000  24.8920   0.0000   0.0000   0.0000  24.8920 " ConfE="      -5933.9256" DelE="          0.0000"
Ni    -0.05764907   -3.42741764   -0.02406921       1
Ni     3.57183381    0.04256682    0.01276833       2
Ni    -0.01885454    3.57498332   -0.00171548       3
Cr    -3.65037713    0.06829486    0.03139055       4
Cr    -0.12011864   -0.02586960    3.47419581       5
Co    -0.04620046    0.04572790   -3.51990939       6
Ni    -1.84759520    0.01372122    1.71620609       7
Ni    -1.82040304   -0.01690766   -1.67496789       8
Co    -0.09150269   -1.67662741    1.72033330       9
Cr    -0.02257097   -1.67514148   -1.73773469      10
Ni     1.75281909    0.03387928    1.77430935      11
Ni    -1.78648091    1.83176742    0.00362382      12
Co     1.75512093   -1.70204973   -0.01607544      13
Co     1.75274998    0.04886023   -1.75876860      14
Cr    -0.04236431    1.79137160    1.78636876      15
Cr    -0.03761897    1.75745378   -1.81056596      16
Cr     1.74405682    1.80553541    0.00432713      17
Cr     0.00000000    0.00000000    0.00000000      18
          18
Lattice="  24.8920   0.0000   0.0000   0.0000  24.8920   0.0000   0.0000   0.0000  24.8920 " ConfE="      -5933.2272" DelE="          0.6984"
Ni    -0.03647854   -3.45004639   -0.00968122       1
Ni     3.58256781    0.02245395    0.01486401       2
Ni    -0.03153082    3.57560646   -0.00199936       3
Cr    -3.62541117    0.05511399    0.03300300       4
Cr    -0.07838702    0.04737162    3.61309347       5
Co    -0.04191051    0.07151169   -3.57680746       6
Ni    -1.82875007    0.02513818    1.79027900       7
Ni    -1.89563816    0.09465765   -1.85307816       8
Co    -0.06552253   -1.69509371    1.85806358       9
Cr     0.02568885   -1.61917793   -1.92931720      10
Ni     1.70411870    0.01974918    1.74629378      11
Ni    -1.80101637    1.77490397   -0.00272730      12
Co     1.66683235   -1.67377482   -0.02198888      13
Co     1.72878691    0.02879548   -1.73344381      14
Cr    -0.02562132    1.66861812    1.61676983      15
Cr     0.01826260    1.55966961   -1.59285411      16
Cr     1.74528515    1.77578629    0.01482841      17
Cr    -0.93383141   -1.12999071   -0.14108751      18
          18
Lattice="  24.8920   0.0000   0.0000   0.0000  24.8920   0.0000   0.0000   0.0000  24.8920 " ConfE="      -5933.8572" DelE="          0.0684"
Ni    -0.01549513   -3.54097649   -0.00707859       1
Ni     3.56219245    0.03519397    0.00703144       2
Ni    -0.02234897    3.60458369   -0.00308007       3
Cr    -3.62963745    0.07618623    0.03824232       4
Cr    -0.09961300    0.02141977    3.55198146       5
Co    -0.04296127    0.04943785   -3.55754033       6
Ni    -1.80695088    0.03795523    1.74302079       7
Ni    -1.76655005    0.02692769   -1.68932256       8
Co    -0.09158251   -1.68638485    1.71071880       9
Cr     0.02492371   -1.64106337   -1.69881522      10
Ni     1.69907014    0.03897044    1.74253502      11
Ni    -1.74711674    1.80316701    0.00835746      12
Co     1.65600522   -1.68356004   -0.04257739      13
Co     1.69881771    0.06452577   -1.73015833      14
Cr    -0.01719366    1.78134974    1.73797729      15
Cr    -0.00780379    1.74783799   -1.77118391      16
Cr     1.67783308    1.76756314   -0.00244980      17
Cr    -1.67904476   -1.73805082   -0.01589912      18
