          18
Lattice="  24.8920   0.0000   0.0000   0.0000  24.8920   0.0000   0.0000   0.0000  24.8920 " ConfE="      -5924.8512" DelE="          0.0000"
Ni     3.53792800    0.07568307   -0.02807627       1
Ni    -0.03701597    0.09907934   -3.55804750       2
Ni     0.00313578    3.61295016    0.00343982       3
Ni    -3.60771578    0.09767005    0.00009910       4
Cr     0.02843890   -0.00538849    3.53827212       5
Cr     0.01494446   -3.32937561   -0.00680190       6
Ni     1.75744441    1.80746325   -0.02333495       7
Co     1.74029938   -1.61677271   -0.10823117       8
Cr     0.04102315   -1.61404496   -1.81230487       9
Cr     0.02837364    1.76673016   -1.75250771      10
Ni    -0.02356972    1.83869136    1.77146414      11
Ni    -1.81838539    0.08547785    1.78143555      12
Co     1.73534952    0.04811153    1.80527666      13
Co    -0.03157206   -1.72047011    1.76298405      14
Co    -1.81234175    0.08995022   -1.75836175      15
Cr    -1.79802171   -1.62566681   -0.03596177      16
Cr    -1.76976534    1.84918640   -0.03188194      17
Cr     0.00000000    0.00000000    0.00000000      18
          18
Lattice="  24.8920   0.0000   0.0000   0.0000  24.8920   0.0000   0.0000   0.0000  24.8920 " ConfE="      -5924.1008" DelE="          0.7504"
Ni     3.47048691    0.07525792    0.03095524       1
Ni    -0.01150179    0.10276337   -3.50158353       2
Ni    -0.00285261    3.66393374    0.01111249       3
Ni    -3.59841717    0.09428585   -0.00965510       4
Cr     0.05490121   -0.00884239    3.53341299       5
Cr    -0.02828945   -3.49556273    0.02259747       6
Ni     1.78994409    1.96147257    0.05481089       7
Co     1.77022861   -1.77512086    0.00973302       8
Cr     0.01110646   -1.80316877   -1.84036422       9
Cr     0.02261736    1.96677945   -1.80753818      10
Ni    -0.01783004    1.84061289    1.73738691      11
Ni    -1.76237539    0.08569810    1.74216214      12
Co     1.68683002    0.05476317    1.77166872      13
Co    -0.03113850   -1.71107456    1.67557270      14
Co    -1.73939631    0.08831999   -1.73238185      15
Cr    -1.65620439   -1.55000197   -0.05990468      16
Cr    -1.66875383    1.75272607   -0.06675927      17
Cr     0.72899513    0.06709998   -0.74371037      18
          18
Lattice="  24.8920   0.0000   0.0000   0.0000  24.8920   0.0000   0.0000   0.0000  24.8920 " ConfE="      -5924.6419" DelE="          0.2093"
Ni     3.57472502    0.08127719   -0.00448720       1
Ni    -0.05939131    0.10489519   -3.58035714       2
Ni    -0.00646875    3.64233928    0.00689566       3
Ni    -3.62154855    0.09602085   -0.00000986       4
Cr     0.03766027   -0.01418837    3.53162841       5
Cr    -0.00729939   -3.41646886    0.00731228       6
Ni     1.73996385    1.81595452   -0.01054986       7
Co     1.68941805   -1.59998142   -0.08120898       8
Cr    -0.04149731   -1.62379019   -1.73948980       9
Cr    -0.05404600    1.80302722   -1.72010978      10
Ni    -0.03778768    1.81970135    1.73412774      11
Ni    -1.80219402    0.08424315    1.75452205      12
Co     1.71195929    0.05999774    1.77913974      13
Co    -0.05053694   -1.70141334    1.69782908      14
Co    -1.74060190    0.10383136   -1.70642560      15
Cr    -1.74108854   -1.60748260   -0.01599987      16
Cr    -1.77038341    1.83756849   -0.02040161      17
Cr     1.76032902    0.08161338   -1.78018276      18
