          18
Lattice="  24.8920   0.0000   0.0000   0.0000  24.8920   0.0000   0.0000   0.0000  24.8920 " ConfE="      -5934.5378" DelE="          0.0000"
Co     0.03538234   -0.01210241   -3.46756043       1
Ni     3.49159653    0.00164012    0.02036110       2
Co    -0.00202342    0.03523169    3.58503532       3
Co    -3.48719494   -0.00591444   -0.01550165       4
Co     0.04230027   -3.57976020    0.01396355       5
Co    -0.02168348    3.54278145    0.06642279       6
Co    -0.00941183   -1.78992532   -1.76697591       7
Ni    -0.03988038    1.76880227   -1.70801138       8
Ni     1.76511796   -1.78251748    0.00168563       9
Co     1.72042185    1.79144509    0.02152938      10
Cr    -1.81596348   -0.07408530   -1.72429160      11
Ni     1.75114555    0.00944422    1.82501530      12
Co    -1.76395793    0.06444596    1.76052993      13
Cr    -1.73652927   -1.86432403    0.06128830      14
Cr    -1.80377152    1.87313270    0.02813147      15
Ni    -0.01368311   -1.76946297    1.80908361      16
Cr    -0.02877936    1.82112313    1.77911113      17
Ni     0.00000000    0.00000000    0.00000000      18
          18
Lattice="  24.8920   0.0000   0.0000   0.0000  24.8920   0.0000   0.0000   0.0000  24.8920 " ConfE="      -5933.7621" DelE="          0.7757"
Co     0.02311096    0.01248815   -3.44871358       1
Ni     3.44844896   -0.00151542   -0.00580183       2
Co     0.00777786    0.04031348    3.57195034       3
Co    -3.50749797   -0.00121020   -0.02412162       4
Co     0.02537895   -3.63905231    0.01907729       5
Co    -0.02877638    3.61178140    0.08033329       6
Co    -0.03172937   -1.95134455   -1.81036748       7
Ni    -0.13051817    1.94005485   -1.70385076       8
Ni     1.79496981   -1.93568880    0.04668022       9
Co     1.73650656    1.96347912    0.09299520      10
Cr    -1.69807272   -0.06889389   -1.66008680      11
Ni     1.69453515    0.01419803    1.71621076      12
Co    -1.67752275    0.07587853    1.65563069      13
Cr    -1.68236353   -1.80387345    0.01823809      14
Cr    -1.77751878    1.81186902    0.06307614      15
Ni    -0.01493838   -1.77004748    1.76397228      16
Cr    -0.01359606    1.82153909    1.71459121      17
Ni     0.90404877    0.01805778   -0.90996145      18
          18
Lattice="  24.8920   0.0000   0.0000   0.0000  24.8920   0.0000   0.0000   0.0000  24.8920 " ConfE="      -5934.3671" DelE="          0.1707"
Co    -0.02616304   -0.01859874   -3.52278732       1
Ni     3.52638634   -0.00675435    0.04864198       2
Co    -0.00174017    0.03532584    3.59057019       3
Co    -3.52814774   -0.00121131   -0.00988463       4
Co     0.03955733   -3.60896341    0.01720709       5
Co    -0.03150551    3.57112792    0.06324107       6
Co    -0.06552962   -1.76952325   -1.70626065       7
Ni    -0.07859722    1.74153513   -1.66435180       8
Ni     1.75035320   -1.79630862    0.02915273       9
Co     1.64519907    1.77245753    0.07324256      10
Cr    -1.75711397   -0.08197736   -1.67053935      11
Ni     1.72061984    0.00128717    1.78844280      12
Co    -1.69956202    0.08218732    1.67705962      13
Cr    -1.72377176   -1.81189800    0.04748229      14
Cr    -1.80435156    1.83435488    0.06094420      15
Ni    -0.02400132   -1.75077059    1.77082916      16
Cr    -0.02710383    1.80415347    1.73573557      17
Ni     1.70931694   -0.00626038   -1.70268816      18
