          18
Lattice="  24.8920   0.0000   0.0000   0.0000  24.8920   0.0000   0.0000   0.0000  24.8920 " ConfE="      -5923.3708" DelE="          0.0000"
Co     0.01890656   -3.48492142    0.02875864       1
Cr     3.44177669   -0.06906696   -0.03313214       2
Co    -0.02702950    3.57122440   -0.05181126       3
Ni    -3.58806013    0.03734984    0.00514280       4
Ni    -0.02342247    0.03017376   -3.55028470       5
Co     0.00261487    0.05943054    3.53523610       6
Ni    -0.03786595   -1.73253260   -1.77825482       7
Co     0.05118380   -1.73828298    1.74961160       8
Co     1.75950071    0.03037043   -1.72672931       9
Cr     1.72617877   -0.02846328    1.77406059      10
Co    -1.84601527   -1.79479570    0.02281291      11
Co     1.74550765    1.82669476    0.00790185      12
Ni    -1.79498062    1.79338394   -0.00096106      13
Ni    -1.81714578    0.01221135   -1.78491866      14
Ni    -1.78403801    0.02160270    1.77890804      15
Cr    -0.01158676    1.80807071   -1.79839325      16
Cr     0.04213094    1.83628806    1.77959552      17
Ni     0.00000000    0.00000000    0.00000000      18
          18
Lattice="  24.8920   0.0000   0.0000   0.0000  24.8920   0.0000   0.0000   0.0000  24.8920 " ConfE="      -5922.9336" DelE="          0.4372"
Co     0.03137625   -3.45929277    0.01649569       1
Cr     3.48889803   -0.08075213   -0.03693063       2
Co    -0.01096253    3.57514088   -0.07008081       3
Ni    -3.58552561    0.02557949   -0.00066080       4
Ni    -0.04754130    0.03415619   -3.61934933       5
Co    -0.01318018    0.05970819    3.58537490       6
Ni    -0.08217125   -1.74161712   -1.88377533       7
Co    -0.05591072   -1.80393046    1.91381803       8
Co     1.76773559    0.10133126   -1.94194004       9
Cr     1.71917896    0.08704350    1.99644220      10
Co    -1.79033803   -1.77407012    0.02537182      11
Co     1.70295696    1.72283513   -0.00333116      12
Ni    -1.74899514    1.74493166   -0.02021118      13
Ni    -1.79130440    0.00560719   -1.78648518      14
Ni    -1.75529428    0.01584615    1.76629526      15
Cr     0.03728498    1.71468475   -1.75665396      16
Cr     0.03369764    1.79025748    1.71625328      17
Ni     0.95606174   -0.82601995    0.04095153      18
          18
Lattice="  24.8920   0.0000   0.0000   0.0000  24.8920   0.0000   0.0000   0.0000  24.8920 " ConfE="      -5923.5550" DelE="         -0.1842"
Co    -0.02163695   -3.52287473    0.02182274       1
Cr     3.57614429    0.01225283   -0.01892564       2
Co    -0.02390918    3.59214300   -0.05550904       3
Ni    -3.60560714    0.03669519    0.00403280       4
Ni    -0.03539008    0.02946236   -3.57316254       5
Co    -0.01250631    0.06922426    3.57037892       6
Ni    -0.05778922   -1.69831197   -1.76702803       7
Co    -0.00880920   -1.66618906    1.74497969       8
Co     1.69810633    0.08742572   -1.73722617       9
Cr     1.65852763    0.04280942    1.79218869      10
Co    -1.82714756   -1.78444605    0.02504221      11
Co     1.70019778    1.75864119    0.02316900      12
Ni    -1.76730913    1.76575787   -0.00994457      13
Ni    -1.80203522    0.01367285   -1.76539740      14
Ni    -1.77515960    0.03737614    1.75644749      15
Cr     0.00712211    1.75911943   -1.75154722      16
Cr     0.02239694    1.81353308    1.72992830      17
Ni     1.70285175   -1.67525770   -0.00768700      18
