          18
Lattice="  24.8920   0.0000   0.0000   0.0000  24.8920   0.0000   0.0000   0.0000  24.8920 " ConfE="      -5950.0791" DelE="          0.0000"
Co    -0.01497264   -3.50683925   -0.01180013       1
Ni     3.50544587   -0.00064422    0.04995398       2
Co     0.00779305    3.57618108   -0.00117752       3
Cr    -3.53801525    0.02846525    0.01535034       4
Co    -0.01505840    0.02211948   -3.55318495       5
Ni     0.00160650    0.00670871    3.55592519       6
Co    -0.00147824   -1.75401996   -1.77999517       7
Co     0.06029087   -1.75654807    1.72834111       8
Co     1.78693493   -0.01887349   -1.75352913       9
Ni     1.75015782    0.01805579    1.78952253      10
Co    -1.80789119   -1.72954939   -0.00577201      11
Co     1.76903913    1.82403803    0.00209544      12
Co    -1.77008578    1.81965056    0.02085633      13
Co    -1.79001179    0.03517546   -1.76775823      14
Cr    -1.74351045    0.05148823    1.73573988      15
Co    -0.00958875    1.79534888   -1.77080022      16
Co     0.01869875    1.82763637    1.78727293      17
Ni     0.00000000    0.00000000    0.00000000      18
          18
Lattice="  24.8920   0.0000   0.0000   0.0000  24.8920   0.0000   0.0000   0.0000  24.8920 " ConfE="      -5949.4738" DelE="          0.6053"
Co    -0.01292571   -3.47771393   -0.00728373       1
Ni     3.47233837   -0.00202276    0.04290420       2
Co     0.01239758    3.58293664    0.00011379       3
Cr    -3.54478345    0.01261278    0.01654266       4
Co    -0.00819652    0.04876572   -3.60877242       5
Ni    -0.01087123    0.03210640    3.62390528       6
Co    -0.07750088   -1.80172009   -1.97070898       7
Co    -0.02009255   -1.76622216    1.94523461       8
Co     1.82533120    0.04989806   -1.90274412       9
Ni     1.77191844    0.08426196    1.91837621      10
Co    -1.70570067   -1.66372017    0.01151694      11
Co     1.73352153    1.76670703    0.00585617      12
Co    -1.72073878    1.75620367    0.02069105      13
Co    -1.73492400    0.03520849   -1.74601230      14
Cr    -1.65881387    0.04475526    1.68489975      15
Co     0.01722965    1.76000917   -1.75062395      16
Co     0.01072588    1.78990224    1.77031628      17
Ni     0.89068637   -0.92584756   -0.00922045      18
          18
Lattice="  24.8920   0.0000   0.0000   0.0000  24.8920   0.0000   0.0000   0.0000  24.8920 " ConfE="      -5949.9795" DelE="          0.0997"
Co    -0.03411670   -3.54045830   -0.00607137       1
Ni     3.54121202    0.03765947    0.04191237       2
Co     0.00651601    3.59448944    0.00412999       3
Cr    -3.56100584    0.02176265    0.01582476       4
Co    -0.00941173    0.03527243   -3.58354299       5
Ni    -0.00081136    0.02035164    3.58179352       6
Co    -0.02191672   -1.72997290   -1.79426701       7
Co    -0.00931862   -1.69635377    1.76135064       8
Co     1.75737964    0.03367190   -1.75973839       9
Ni     1.71863060    0.04915098    1.77986779      10
Co    -1.73652350   -1.65861632    0.00606520      11
Co     1.74327390    1.79291700    0.01086408      12
Co    -1.73983519    1.78065771    0.02554001      13
Co    -1.75040544    0.04661744   -1.74046745      14
Cr    -1.68999580    0.05707250    1.67674668      15
Co     0.00152403    1.77218052   -1.73650133      16
Co     0.00423873    1.81091808    1.77266782      17
Ni     1.70824313   -1.71715832    0.01379040      18
