          18
Lattice="  24.8920   0.0000   0.0000   0.0000  24.8920   0.0000   0.0000   0.0000  24.8920 " ConfE="      -5949.3540" DelE="          0.0000"
Ni     0.01285318   -0.01763945   -3.50021839       1
Ni     3.49966496   -0.05843319    0.00472170       2
Ni    -3.60246839   -0.01265012   -0.00925402       3
Ni     0.01616169   -0.04303170    3.50065770       4
Co     0.02826447   -3.54095892    0.00287544       5
Cr    -0.02737301    3.56393006    0.04219797       6
Ni     1.76872110    0.00283660   -1.74713324       7
Cr    -1.77997311    0.00980885   -1.75233626       8
Cr     0.11780348   -1.83322790   -1.59618328       9
Cr    -1.80738014   -1.75882426    0.00497681      10
Co     0.00759649    1.80538821   -1.74064994      11
Cr     1.70613457    1.82463837    0.06509569      12
Cr    -1.77273151    1.76594652   -0.01607332      13
Co    -0.04120025    1.75054567    1.76269196      14
Cr     0.17746428   -1.78285340    1.55594741      15
Co     1.77861907   -0.04117793    1.73468755      16
Co    -1.78548072   -0.04121714    1.72884560      17
Co     0.00000000    0.00000000    0.00000000      18
          18
Lattice="  24.8920   0.0000   0.0000   0.0000  24.8920   0.0000   0.0000   0.0000  24.8920 " ConfE="      -5948.3099" DelE="          1.0441"
Ni     0.01427647    0.01919107   -3.59000791       1
Ni     3.44719878   -0.06847365   -0.00924166       2
Ni    -3.57525170   -0.01295754   -0.00978897       3
Ni    -0.00195426   -0.00434614    3.58436342       4
Co    -0.00278329   -3.53183447   -0.00985166       5
Cr    -0.01594973    3.58426850    0.06118182       6
Ni     1.77966883    0.04680753   -1.87947357       7
Cr    -1.68440994   -0.00330316   -1.73695830       8
Cr    -0.00410904   -1.84884669   -1.94260104       9
Cr    -1.66563363   -1.68855894   -0.01151784      10
Co     0.01228231    1.76140690   -1.72785301      11
Cr     1.58708665    1.69573481    0.05524682      12
Cr    -1.61556598    1.66353345   -0.01576498      13
Co    -0.03556327    1.70215564    1.74746516      14
Cr    -0.01508117   -1.81860154    1.88554396      15
Co     1.78606009   -0.00259332    1.84513391      16
Co    -1.74770910   -0.03670568    1.70808455      17
Co     1.00133987   -1.20589959   -0.01625430      18
          18
Lattice="  24.8920   0.0000   0.0000   0.0000  24.8920   0.0000   0.0000   0.0000  24.8920 " ConfE="      -5948.9123" DelE="          0.4417"
Ni     0.01294413   -0.01098377   -3.53560130       1
Ni     3.54237850   -0.00593150    0.00519588       2
Ni    -3.60932750   -0.00143442   -0.01227669       3
Ni     0.00517159   -0.02333739    3.52940776       4
Co     0.00315478   -3.57765339   -0.00421218       5
Cr    -0.02525232    3.59510225    0.05147160       6
Ni     1.74696713    0.02376792   -1.74616966       7
Cr    -1.73314926    0.01196298   -1.72810418       8
Cr     0.05320424   -1.76584930   -1.60548347       9
Cr    -1.74405850   -1.69819538    0.02013290      10
Co    -0.00258500    1.76228351   -1.70377136      11
Cr     1.63193643    1.75727550    0.06819653      12
Cr    -1.67468720    1.70795302   -0.01237956      13
Co    -0.03876470    1.70977100    1.71702995      14
Cr     0.09146615   -1.74006766    1.60868825      15
Co     1.75364797   -0.00504344    1.72444087      16
Co    -1.76501184   -0.02418561    1.69113829      17
Co     1.76374225   -1.76471581    0.00504095      18
