          18
Lattice="  24.8920   0.0000   0.0000   0.0000  24.8920   0.0000   0.0000   0.0000  24.8920 " ConfE="      -5938.1689" DelE="          0.0000"
Ni     0.00008336    3.57590403    0.01563195       1
Co    -0.03147465    0.06616172    3.45632360       2
Cr    -0.06177858   -3.50325218   -0.01881922       3
Co     0.02442410   -0.02701849   -3.64956668       4
Cr     3.46994632   -0.00986356   -0.04426633       5
Cr    -3.53983258    0.06675948   -0.01795099       6
Ni     1.72005453    1.79996422    0.02087255       7
Ni    -1.73245534    1.81288883    0.03667325       8
Ni     1.73403997    0.06410746    1.75087622       9
Cr    -1.79439768    0.00712318    1.77601130      10
Ni     0.00212512    1.81146497   -1.83332879      11
Co     0.01432922   -1.76850420    1.77654404      12
Co     0.02047379   -1.77387647   -1.83366118      13
Co     1.75156576   -0.01372198   -1.84601752      14
Ni    -1.76301565    0.06291375   -1.81175368      15
Cr     1.70116762   -1.73617103   -0.02536430      16
Ni    -1.77458090   -1.72091232   -0.03116500      17
Co     0.00000000    0.00000000    0.00000000      18
          18
Lattice="  24.8920   0.0000   0.0000   0.0000  24.8920   0.0000   0.0000   0.0000  24.8920 " ConfE="      -5937.5426" DelE="          0.6263"
Ni    -0.01655443    3.52962287    0.02942127       1
Co    -0.01848603    0.06372840    3.42655936       2
Cr    -0.08086685   -3.51753696   -0.01123792       3
Co     0.02548770   -0.02424630   -3.62527354       4
Cr     3.57671363   -0.02708299   -0.05988352       5
Cr    -3.63385943    0.04891520   -0.02156870       6
Ni     1.79226229    1.77729644    0.01840380       7
Ni    -1.93305135    1.87422035   -0.04475720       8
Ni     1.88867155    0.00652310    1.76128118       9
Cr    -1.98662504   -0.02108168    1.83717856      10
Ni    -0.00745478    1.77313837   -1.76040202      11
Co     0.02315417   -1.72894980    1.75577082      12
Co     0.02604025   -1.73596766   -1.77070733      13
Co     1.75178740   -0.01629270   -1.79753876      14
Ni    -1.77424718    0.07338146   -1.77345022      15
Cr     1.65810782   -1.67281881   -0.01432532      16
Ni    -1.73526362   -1.63408957    0.00345938      17
Co    -0.17476614    0.64433595    0.85089868      18
          18
Lattice="  24.8920   0.0000   0.0000   0.0000  24.8920   0.0000   0.0000   0.0000  24.8920 " ConfE="      -5938.3950" DelE="         -0.2261"
Ni    -0.00430312    3.60618705   -0.01904741       1
Co    -0.01903308    0.02220929    3.51338462       2
Cr    -0.08677367   -3.53559626   -0.02112936       3
Co     0.02941283   -0.03423510   -3.65630885       4
Cr     3.50824148   -0.01983417   -0.06329335       5
Cr    -3.59867538    0.06239816   -0.02749773       6
Ni     1.71163361    1.77258775   -0.01895754       7
Ni    -1.76774065    1.79549685   -0.02465504       8
Ni     1.71060264    0.03146465    1.68498891       9
Cr    -1.80583385    0.01341668    1.76570382      10
Ni    -0.00116998    1.79585442   -1.81333033      11
Co     0.00244831   -1.72398210    1.73603351      12
Co     0.03165729   -1.76483148   -1.80548808      13
Co     1.73462979   -0.02581095   -1.81204284      14
Ni    -1.74903727    0.06019732   -1.79834058      15
Cr     1.66593285   -1.73884885   -0.05126210      16
Ni    -1.73313103   -1.66094317   -0.02893039      17
Co    -0.06876009    1.80375219    1.74898775      18
