          23
Lattice="  24.8920   0.0000   0.0000   0.0000  24.8920   0.0000   0.0000   0.0000  24.8920 " ConfE="      -5944.7005" DelE="          0.0000"
Cr     2.45661361   -2.44106679    0.03242699       1
Cr    -2.64526403    2.63262297   -0.01808751       2
Ni     0.79907557   -2.59078708   -1.79777437       3
Co     0.82597055   -0.81137132   -3.60629455       4
Ni    -0.97392321    2.69925702   -1.79713693       5
Co    -2.71750004    0.94795484   -1.73467973       6
Ni     2.53630007   -0.79547061    1.80559141       7
Co     0.74874985   -2.51502125    1.74251228       8
Ni    -0.98636255    2.72202521    1.80668700       9
Ni    -2.72525680    0.97936653    1.77918250      10
Co     0.78055715   -0.83536815    3.63833706      11
Co    -0.95357810    0.98281619    3.65091647      12
Cr    -1.04207520    0.98712745   -3.60834865      13
Ni     2.47724409    0.98049929    0.05382060      14
Cr     2.36646301   -0.72902566   -1.62239531      15
Cr    -0.88888276   -2.43408799   -0.02181147      16
Co     0.70001912    2.71096077    0.02381456      17
Cr    -2.57849939   -0.66276083   -0.03354554      18
Co     0.81587191    0.98544829   -1.95634599      19
Cr    -0.91752299   -0.81435165   -1.97756952      20
Co     0.79454758    0.99989370    1.97409510      21
Cr    -0.95440997   -0.79145179    1.94797741      22
Ni     0.00000000    0.00000000    0.00000000      23
          23
Lattice="  24.8920   0.0000   0.0000   0.0000  24.8920   0.0000   0.0000   0.0000  24.8920 " ConfE="      -5944.6352" DelE="          0.0653"
Cr     2.49779665   -2.45874140    0.01693799       1
Cr    -2.65723045    2.64621623   -0.01452270       2
Ni     0.81101783   -2.55236160   -1.76679636       3
Co     0.84169829   -0.80481747   -3.60741999       4
Ni    -0.96847367    2.71404490   -1.78896170       5
Co    -2.72204427    0.95065624   -1.72671744       6
Ni     2.50942650   -0.79133088    1.76100570       7
Co     0.73747835   -2.50716383    1.72350205       8
Ni    -0.99171702    2.74616545    1.80930191       9
Ni    -2.73530495    0.97616942    1.77645934      10
Co     0.78308433   -0.83519840    3.63251785      11
Co    -0.95205631    0.97672810    3.62221912      12
Cr    -1.02848440    0.98056961   -3.57553724      13
Ni     2.50308578    0.98677413    0.03312669      14
Cr     2.45472914   -0.73322456   -1.66396744      15
Cr    -0.87382060   -2.35471408   -0.01792820      16
Co     0.71335182    2.73559492    0.02534117      17
Cr    -2.70918435   -0.71276502   -0.04809779      18
Co     0.84866753    0.95594113   -1.90654661      19
Cr    -0.90568615   -0.83180839   -1.99005421      20
Co     0.78997726    0.98199470    1.92059462      21
Cr    -0.92955723   -0.81751614    1.94208537      22
Ni    -0.39955444    0.28692231   -0.01950742      23
          23
Lattice="  24.8920   0.0000   0.0000   0.0000  24.8920   0.0000   0.0000   0.0000  24.8920 " ConfE="      -5945.1765" DelE="         -0.4759"
Cr     2.53336729   -2.49098997    0.02507764       1
Cr    -2.74656641    2.75276729   -0.02048803       2
Ni     0.81814760   -2.55975745   -1.74624637       3
Co     0.82976179   -0.80089382   -3.57262781       4
Ni    -0.98136518    2.74649374   -1.78521714       5
Co    -2.77338174    0.97591683   -1.75522665       6
Ni     2.53286299   -0.80508919    1.75237540       7
Co     0.75313265   -2.52504827    1.71704007       8
Ni    -0.99273003    2.75529281    1.79280502       9
Ni    -2.76175446    0.98735545    1.76129771      10
Co     0.78063899   -0.83583552    3.60949350      11
Co    -0.94308836    0.96161294    3.58091105      12
Cr    -1.02362518    0.96058179   -3.51214923      13
Ni     2.52678640    0.97930843    0.03273479      14
Cr     2.49104537   -0.75842377   -1.66000032      15
Cr    -0.90701409   -2.46136557   -0.02607047      16
Co     0.76679125    2.81205901    0.03012838      17
Cr    -2.76265582   -0.78292750   -0.06345522      18
Co     0.79638832    0.89790108   -1.75483503      19
Cr    -0.87069798   -0.76030334   -1.75637719      20
Co     0.74349913    0.92208173    1.80505434      21
Cr    -0.89573958   -0.76671949    1.67230171      22
Ni    -0.95211320    0.96749990   -0.00735975      23
