          18
Lattice="  24.8920   0.0000   0.0000   0.0000  24.8920   0.0000   0.0000   0.0000  24.8920 " ConfE="      -5929.3181" DelE="          0.0000"
Cr    -3.48262422    0.15373930   -0.02759373       1
Co    -0.00403659   -0.05756063   -3.45256447       2
Cr     3.53193851   -0.04470489   -0.00830318       3
Co    -0.03961284    0.02388275    3.63514063       4
Co     0.04067134   -3.61265051    0.03013604       5
Ni     0.01307917    3.54538188    0.06863595       6
Ni    -1.75343134   -1.71183796    0.00232034       7
Co    -1.79814821    1.73877544    0.02420952       8
Co     0.02483638   -1.83362788   -1.76266343       9
Co     0.03420827    1.73848165   -1.75103233      10
Ni    -1.76686897    0.00999995    1.85357855      11
Co     1.85649080   -0.06230409   -1.76277970      12
Ni     1.76938554    0.00005494    1.83504571      13
Ni    -0.00069554   -1.77868594    1.82453260      14
Ni     0.01326351    1.77768443    1.83895366      15
Co     1.77696425   -1.83783145    0.00559558      16
Ni     1.76935857    1.76278003    0.04914740      17
Ni     0.00000000    0.00000000    0.00000000      18
          18
Lattice="  24.8920   0.0000   0.0000   0.0000  24.8920   0.0000   0.0000   0.0000  24.8920 " ConfE="      -5928.8896" DelE="          0.4284"
Cr    -3.45292059    0.13734408   -0.03911247       1
Co     0.01441345   -0.07287544   -3.44310405       2
Cr     3.54972635   -0.02833737   -0.02406121       3
Co    -0.04898325    0.02328998    3.62241327       4
Co     0.03886321   -3.64580159    0.03295511       5
Ni     0.02281183    3.58078065    0.06521874       6
Ni    -1.80566885   -1.85753509    0.04883995       7
Co    -1.82755108    1.88195425    0.06744671       8
Co     0.08126563   -1.98216389   -1.83141810       9
Co     0.08106872    1.87265685   -1.81560435      10
Ni    -1.74265220    0.00942403    1.78405883      11
Co     1.82049764   -0.07043125   -1.75171306      12
Ni     1.74734329   -0.00501473    1.79593773      13
Ni    -0.00728707   -1.77687420    1.79089141      14
Ni     0.00937017    1.77478639    1.81388263      15
Co     1.74781570   -1.81976669   -0.00689757      16
Ni     1.71449487    1.72732035    0.02136204      17
Ni    -0.53097322   -0.00961777   -0.57137663      18
          18
Lattice="  24.8920   0.0000   0.0000   0.0000  24.8920   0.0000   0.0000   0.0000  24.8920 " ConfE="      -5929.5960" DelE="         -0.2779"
Cr    -3.54489609    0.11356090    0.02677590       1
Co     0.03833934   -0.04049157   -3.51477635       2
Cr     3.54271233   -0.04012973   -0.01390444       3
Co    -0.04001655    0.02079409    3.64021226       4
Co     0.04737415   -3.64102926    0.03199294       5
Ni     0.01716978    3.56070678    0.07127699       6
Ni    -1.71260181   -1.73465871    0.03862545       7
Co    -1.79204244    1.77160547    0.06148911       8
Co     0.05262111   -1.83762100   -1.75166502       9
Co     0.04564861    1.73603609   -1.72293290      10
Ni    -1.74588309    0.00889553    1.81412772      11
Co     1.81055041   -0.06559225   -1.73352214      12
Ni     1.74978735   -0.00931756    1.79792605      13
Ni     0.00731685   -1.76700927    1.80629529      14
Ni     0.01078010    1.75689283    1.81469472      15
Co     1.76041452   -1.82073147    0.00606578      16
Ni     1.73792487    1.72868882    0.04632132      17
Ni    -1.69238336   -0.00023577   -1.68101242      18
