          18
Lattice="  24.8920   0.0000   0.0000   0.0000  24.8920   0.0000   0.0000   0.0000  24.8920 " ConfE="      -5938.2799" DelE="          0.0000"
Ni    -3.49212263   -0.02452074    0.02286784       1
Ni     0.03036298    0.00788427    3.55778270       2
Cr     0.00297475   -3.46517614    0.00396208       3
Co    -0.00547468    0.00201469   -3.56283568       4
Cr     3.55533496    0.07503551    0.02519734       5
Co     0.03414981    3.53851867    0.01008699       6
Ni    -1.75494209   -0.06233878    1.76470977       7
Ni    -0.00400200   -1.77035900    1.76008701       8
Co    -1.79654642   -0.03598548   -1.77188663       9
Ni     1.74706238    0.02305211   -1.79335147      10
Co    -0.03495071   -1.75581559   -1.70271140      11
Co    -1.72371344    1.79511054   -0.01855543      12
Cr    -0.02912914    1.73908277   -1.76327849      13
Cr     1.76246134    1.76952336   -0.00897832      14
Co     1.86918996   -1.72817986   -0.00992740      15
Cr    -0.05173497    1.76228519    1.77301783      16
Co     1.80931994    0.01598432    1.77279457      17
Co     0.00000000    0.00000000    0.00000000      18
          18
Lattice="  24.8920   0.0000   0.0000   0.0000  24.8920   0.0000   0.0000   0.0000  24.8920 " ConfE="      -5937.3903" DelE="          0.8895"
Ni    -3.46416653   -0.00682600    0.02860442       1
Ni     0.04463257    0.02399191    3.62235217       2
Cr    -0.00978788   -3.43739235    0.03600202       3
Co     0.02382465    0.01709023   -3.64793276       4
Cr     3.55509168    0.04212450    0.01908802       5
Co     0.02654778    3.52892556    0.01628631       6
Ni    -1.77591729   -0.01387748    1.91379049       7
Ni     0.03640807   -1.77714369    1.93053315       8
Co    -1.81268201    0.01842275   -1.93044395       9
Ni     1.69103848    0.01704102   -1.77944141      10
Co     0.04460976   -1.80492133   -1.95061467      11
Co    -1.62413693    1.66696780   -0.01321921      12
Cr    -0.05123365    1.67863223   -1.72557562      13
Cr     1.71577301    1.71701449   -0.00349811      14
Co     1.72418834   -1.70105090   -0.01405241      15
Cr    -0.03518085    1.67653098    1.72080028      16
Co     1.76907389    0.01259456    1.75391609      17
Co    -0.96177221   -1.02205255   -0.04780411      18
          18
Lattice="  24.8920   0.0000   0.0000   0.0000  24.8920   0.0000   0.0000   0.0000  24.8920 " ConfE="      -5938.1928" DelE="          0.0870"
Ni    -3.52470506    0.02828678    0.01966657       1
Ni     0.03801745    0.02016404    3.56919497       2
Cr     0.00730661   -3.51971784    0.01888044       3
Co    -0.00138667    0.00310704   -3.57703864       4
Cr     3.58632075    0.07075263    0.02756314       5
Co     0.03493977    3.56616847    0.01874626       6
Ni    -1.72284487   -0.00988729    1.76858759       7
Ni     0.01290051   -1.73603673    1.74807918       8
Co    -1.76017703    0.00104411   -1.76624320       9
Ni     1.70979111    0.02988492   -1.74910102      10
Co    -0.01604000   -1.73716597   -1.70409371      11
Co    -1.65698239    1.74988611   -0.00949671      12
Cr    -0.04173238    1.70113302   -1.69020393      13
Cr     1.74407401    1.74668032    0.00316202      14
Co     1.83486247   -1.71797608   -0.00570351      15
Cr    -0.02190747    1.74415684    1.71877872      16
Co     1.78911759    0.02988815    1.73745294      17
Co    -1.77473040   -1.76159006   -0.00105356      18
