          18
Lattice="  24.8920   0.0000   0.0000   0.0000  24.8920   0.0000   0.0000   0.0000  24.8920 " ConfE="      -5942.8086" DelE="          0.0000"
Ni     0.09320753   -0.00874820   -3.40748222       1
Cr    -3.36855734    0.01710204    0.01769705       2
Co     0.14143245    3.55600034    0.10043899       3
Co     0.14310182    0.02242665    3.68765038       4
Co     0.10320966   -3.53396944    0.06566069       5
Cr     3.77770441   -0.00541119    0.01976280       6
Ni     0.10036976    1.77570383   -1.67351925       7
Cr    -1.68525489    1.66991161    0.03367241       8
Ni    -1.63719584    0.00705173    1.89934936       9
Co    -1.67966058   -1.72263753    0.01227369      10
Ni     1.91546557   -0.00934709   -1.69039477      11
Cr     0.05434761   -1.82074360   -1.70349449      12
Ni     1.89938476    1.75310084    0.08976021      13
Ni     0.11224762    1.76010913    1.85652485      14
Ni     0.12392678   -1.75768623    1.85121484      15
Ni     1.87953012   -1.74275491    0.06347623      16
Ni     1.91685836    0.01728935    1.85488282      17
Co     0.00000000    0.00000000    0.00000000      18
          18
Lattice="  24.8920   0.0000   0.0000   0.0000  24.8920   0.0000   0.0000   0.0000  24.8920 " ConfE="      -5942.5757" DelE="          0.2330"
Ni     0.08606165   -0.00114089   -3.38516867       1
Cr    -3.31451003    0.02134451   -0.01888668       2
Co     0.16232371    3.59976514    0.10890180       3
Co     0.13086328    0.02399814    3.67450261       4
Co     0.11820124   -3.57376700    0.08002171       5
Cr     3.77265953   -0.00835863    0.01456753       6
Ni     0.14980700    1.87872379   -1.69323755       7
Cr    -1.69670242    1.79996528    0.06725841       8
Ni    -1.61720546   -0.00584053    1.81848263       9
Co    -1.76457373   -1.96040690    0.07780756      10
Ni     1.87281088   -0.00426356   -1.66764160      11
Cr     0.09683044   -1.92044575   -1.73183445      12
Ni     1.89273425    1.75766832    0.08648894      13
Ni     0.10979021    1.75397640    1.82192892      14
Ni     0.10917228   -1.75888712    1.82037286      15
Ni     1.85121000   -1.73254003    0.06052654      16
Ni     1.89786469    0.01798360    1.83772519      17
Co    -0.64287105   -0.07738341   -0.62858118      18
          18
Lattice="  24.8920   0.0000   0.0000   0.0000  24.8920   0.0000   0.0000   0.0000  24.8920 " ConfE="      -5943.2761" DelE="         -0.4675"
Ni     0.14073001   -0.00385911   -3.46008518       1
Cr    -3.45924321    0.03252015    0.06580755       2
Co     0.14582560    3.56857706    0.10589180       3
Co     0.13996930    0.02588502    3.69246549       4
Co     0.11444816   -3.55271975    0.07196818       5
Cr     3.79700506   -0.00704884    0.02149083       6
Ni     0.11434604    1.74323533   -1.62344470       7
Cr    -1.69002537    1.68458289    0.06980179       8
Ni    -1.61697149    0.01000934    1.84449027       9
Co    -1.63741601   -1.72528362    0.05401871      10
Ni     1.88574013   -0.01527897   -1.66589040      11
Cr     0.08530100   -1.81780087   -1.68111361      12
Ni     1.90327457    1.74304876    0.10052745      13
Ni     0.11518422    1.74114884    1.83213357      14
Ni     0.13473982   -1.74215371    1.83533930      15
Ni     1.87111109   -1.72746867    0.06931851      16
Ni     1.92653466    0.02140449    1.86111213      17
Co    -1.62658697   -0.01848294   -1.63712600      18
