          18
Lattice="  24.8920   0.0000   0.0000   0.0000  24.8920   0.0000   0.0000   0.0000  24.8920 " ConfE="      -5951.2689" DelE="          0.0000"
Ni     3.49050672    0.00764169   -0.03774911       1
Ni    -0.06687480    0.01994992   -3.63847173       2
Co    -0.07291562    0.00940178    3.47342556       3
Cr    -0.02178318   -3.54114853   -0.08741925       4
Cr     0.00083828    3.50074777   -0.04454508       5
Cr    -3.58277665   -0.08097639    0.00379049       6
Ni     1.74974276   -1.76805466   -0.03725317       7
Ni    -0.01018432   -1.77339211    1.72884372       8
Co     1.74054103    1.78207151   -0.06243616       9
Co    -0.05691067    1.76089731    1.70391375      10
Co    -1.79633982   -1.80866039   -0.08056846      11
Co    -1.85713663    1.75617530   -0.04573784      12
Cr    -1.84540282   -0.01611494    1.75980749      13
Co     1.72927919    0.03295064   -1.86690924      14
Cr     0.05747190   -1.74328552   -1.85302833      15
Cr     0.02716044    1.77030808   -1.78409501      16
Cr    -1.81406237    0.04745480   -1.78841034      17
Ni     0.00000000    0.00000000    0.00000000      18
          18
Lattice="  24.8920   0.0000   0.0000   0.0000  24.8920   0.0000   0.0000   0.0000  24.8920 " ConfE="      -5950.1816" DelE="          1.0873"
Ni     3.45446684    0.00203835   -0.04513348       1
Ni    -0.07491722    0.02419437   -3.64579218       2
Co    -0.07661652    0.00515186    3.46010299       3
Cr    -0.03900617   -3.60721394   -0.12074433       4
Cr    -0.01488269    3.57647186   -0.07640963       5
Cr    -3.58814108   -0.10522177    0.03924683       6
Ni     1.75177510   -1.87637636   -0.08865658       7
Ni    -0.04511841   -1.93575372    1.75002448       8
Co     1.73189493    1.89915044   -0.13622322       9
Co    -0.15115325    1.91975184    1.70469752      10
Co    -1.74191542   -1.80267539   -0.06769839      11
Co    -1.82288566    1.73530623   -0.04871945      12
Cr    -1.70095407   -0.02505887    1.67335245      13
Co     1.69890574    0.02783614   -1.81831240      14
Cr     0.06772849   -1.63879569   -1.79672076      15
Cr     0.03981111    1.69035602   -1.71681689      16
Cr    -1.73227637    0.02843567   -1.64388958      17
Ni     1.08099356    0.02656177    1.14518792      18
          18
Lattice="  24.8920   0.0000   0.0000   0.0000  24.8920   0.0000   0.0000   0.0000  24.8920 " ConfE="      -5950.7409" DelE="          0.5280"
Ni     3.51181400    0.00921436   -0.06349174       1
Ni    -0.07851130    0.02213822   -3.64749678       2
Co    -0.09257270    0.01115204    3.51327989       3
Cr    -0.02021080   -3.57822927   -0.09591010       4
Cr     0.00063694    3.55845232   -0.06283006       5
Cr    -3.61376891   -0.08324817   -0.00493980       6
Ni     1.72370894   -1.76681894   -0.06776791       7
Ni    -0.04048949   -1.75891908    1.68429654       8
Co     1.70736130    1.78043465   -0.09275389       9
Co    -0.08416665    1.73435610    1.64578909      10
Co    -1.78010700   -1.81050756   -0.08787839      11
Co    -1.84216504    1.76958352   -0.04553002      12
Cr    -1.78731216    0.00282216    1.65586354      13
Co     1.68662029    0.02446554   -1.82008071      14
Cr     0.05173255   -1.68158425   -1.83317137      15
Cr     0.04418542    1.72387035   -1.74365622      16
Cr    -1.67815923    0.03485836   -1.58707275      17
Ni     1.68794964    0.00651995    1.68841609      18
