          18
Lattice="  24.8920   0.0000   0.0000   0.0000  24.8920   0.0000   0.0000   0.0000  24.8920 " ConfE="      -5940.1739" DelE="          0.0000"
Co    -3.47832918   -0.04493730    0.05696611       1
Cr    -0.06421073    3.46333698    0.01023993       2
Ni     0.00875775   -0.03747333   -3.56661672       3
Ni     0.03119023   -0.02999083    3.53949166       4
Cr     0.02227278   -3.62725536   -0.02531577       5
Co     3.59750653   -0.03094373   -0.03679251       6
Co    -1.76166855   -0.00535659   -1.70486094       7
Co     0.00755070    1.77767193   -1.71777269       8
Cr    -1.77195632    0.02471596    1.70855437       9
Co    -0.02113442    1.78804993    1.71553349      10
Ni     1.80846198   -0.05018455   -1.81466290      11
Ni     0.00495337   -1.80311625    1.75031371      12
Ni     1.79383285   -0.02137504    1.79586279      13
Ni     1.79401794   -1.80532623   -0.02221372      14
Cr    -0.00748627   -1.78238452   -1.77521730      15
Cr    -1.73409964   -1.84071979   -0.04070888      16
Cr     1.86080745    1.73628538   -0.04402296      17
Ni     0.00000000    0.00000000    0.00000000      18
          18
Lattice="  24.8920   0.0000   0.0000   0.0000  24.8920   0.0000   0.0000   0.0000  24.8920 " ConfE="      -5939.5504" DelE="          0.6235"
Co    -3.45601017   -0.03235641    0.04414673       1
Cr    -0.05930551    3.36426867    0.01699933       2
Ni     0.02292558   -0.05286231   -3.63603502       3
Ni     0.04145715   -0.04557844    3.60548573       4
Cr     0.00431157   -3.61959237   -0.02169823       5
Co     3.60307586   -0.02522751   -0.02932672       6
Co    -1.79535417   -0.04675212   -1.89699805       7
Co     0.07189883    1.78343525   -1.90924652       8
Cr    -1.80110677   -0.00254876    1.89767679       9
Co     0.06245560    1.80933235    1.93089439      10
Ni     1.80952373   -0.04915148   -1.84025359      11
Ni    -0.00815473   -1.76230222    1.75200732      12
Ni     1.79007691   -0.01988609    1.82482198      13
Ni     1.74127391   -1.74348194   -0.01924681      14
Cr    -0.06166644   -1.66848684   -1.71742844      15
Cr    -1.71492590   -1.73039166   -0.02325869      16
Cr     1.78817443    1.68825474   -0.02288802      17
Ni    -0.71213056    0.71265268    0.01888089      18
          18
Lattice="  24.8920   0.0000   0.0000   0.0000  24.8920   0.0000   0.0000   0.0000  24.8920 " ConfE="      -5940.2176" DelE="         -0.0437"
Co    -3.54550252   -0.05620025    0.03788933       1
Cr    -0.02936095    3.55156426    0.02988129       2
Ni     0.02014690   -0.04869194   -3.58257323       3
Ni     0.03991277   -0.04194187    3.56062992       4
Cr     0.01636704   -3.66346547   -0.02656360       5
Co     3.61146347   -0.02954095   -0.03888349       6
Co    -1.69208285   -0.05993463   -1.68118591       7
Co     0.07313112    1.72250213   -1.68873773       8
Cr    -1.73632407   -0.03179397    1.73350452       9
Co     0.03551385    1.74657013    1.73591306      10
Ni     1.79876575   -0.05721709   -1.79497453      11
Ni     0.00040788   -1.78077530    1.71272091      12
Ni     1.77627340   -0.02206828    1.76731113      13
Ni     1.75944093   -1.78310424   -0.02891577      14
Cr    -0.01129923   -1.76264730   -1.73732208      15
Cr    -1.70129205   -1.75595285   -0.04192022      16
Cr     1.79160179    1.72355386   -0.03916411      17
Ni    -1.72918910    1.71435330    0.03859676      18
