          18
Lattice="  24.8920   0.0000   0.0000   0.0000  24.8920   0.0000   0.0000   0.0000  24.8920 " ConfE="      -5943.8636" DelE="          0.0000"
Co     0.04918597   -3.50727073   -0.02512041       1
Cr     0.08038242   -0.04210097    3.43167438       2
Ni     0.05218846    3.60211657   -0.06285875       3
Cr     0.06824716   -0.01629780   -3.59609180       4
Ni    -3.48855087    0.01611767   -0.03681777       5
Ni     3.56006362    0.02474713   -0.01695305       6
Cr    -1.60663362   -1.81453978   -0.02628592       7
Cr     1.67307428   -1.74875506    0.06951507       8
Cr    -1.63313588   -0.02335101    1.71615405       9
Co     1.72352808   -0.00690610    1.74156373      10
Co     0.04142818   -1.71668092   -1.82984879      11
Co     0.02644999    1.84854990    1.74180527      12
Cr     0.01854355    1.77121744   -1.83757084      13
Cr    -1.73379897    0.01005908   -1.80732186      14
Ni     1.80529083    0.02444856   -1.79792310      15
Cr    -1.68977153    1.83149860   -0.02317024      16
Ni     1.80650580    1.80635519   -0.02995172      17
Co     0.00000000    0.00000000    0.00000000      18
          18
Lattice="  24.8920   0.0000   0.0000   0.0000  24.8920   0.0000   0.0000   0.0000  24.8920 " ConfE="      -5943.1078" DelE="          0.7558"
Co     0.04781505   -3.52754300   -0.02959850       1
Cr     0.07967879   -0.07103171    3.39380581       2
Ni     0.06322617    3.60456811   -0.05786454       3
Cr     0.07354029   -0.03685932   -3.59216586       4
Ni    -3.54392878    0.04049151   -0.03673196       5
Ni     3.63140208    0.04219580   -0.02302687       6
Cr    -1.87949174   -1.89102819   -0.12237283       7
Cr     1.90181153   -1.76935623   -0.02774135       8
Cr    -1.72865789    0.11414810    1.71497678       9
Co     1.81736223    0.05387322    1.74287639      10
Co     0.04069241   -1.67848239   -1.70719267      11
Co     0.03370689    1.77727660    1.69646222      12
Cr     0.03854835    1.71683893   -1.80008555      13
Cr    -1.65659106   -0.00557721   -1.66201845      14
Ni     1.81133100    0.01323873   -1.76219415      15
Cr    -1.64638671    1.80040750   -0.02313441      16
Ni     1.80445836    1.77354144   -0.03289355      17
Co    -0.03222281   -1.14427996    0.92108624      18
          18
Lattice="  24.8920   0.0000   0.0000   0.0000  24.8920   0.0000   0.0000   0.0000  24.8920 " ConfE="      -5943.5250" DelE="          0.3386"
Co     0.03861212   -3.57802794   -0.05690151       1
Cr     0.05340470    0.01143984    3.50920211       2
Ni     0.05654230    3.61419807   -0.06272168       3
Cr     0.07388538   -0.01036482   -3.62887447       4
Ni    -3.51012073    0.02754928   -0.04551566       5
Ni     3.58466361    0.03757355   -0.02934957       6
Cr    -1.61236909   -1.74100084   -0.07445824       7
Cr     1.68507589   -1.68143660    0.01874402       8
Cr    -1.61351263    0.03199887    1.66722385       9
Co     1.72635731    0.01798265    1.69497894      10
Co     0.04262889   -1.68540599   -1.76327830      11
Co     0.01813304    1.79647991    1.70170877      12
Cr     0.02594717    1.76424505   -1.83786064      13
Cr    -1.68338964    0.03294837   -1.76650984      14
Ni     1.78637257    0.03706191   -1.79336550      15
Cr    -1.62991983    1.78209075   -0.03532640      16
Ni     1.78689894    1.78895062   -0.04383827      17
Co     0.00713864   -1.73273402    1.63999749      18
