          18
Lattice="  24.8920   0.0000   0.0000   0.0000  24.8920   0.0000   0.0000   0.0000  24.8920 " ConfE="      -5938.4016" DelE="          0.0000"
Ni    -3.43167456   -0.00241833    0.01220900       1
Ni     0.00948492   -3.51722509    0.00095761       2
Ni     0.04447909    3.57350900   -0.02858144       3
Ni     3.54753732   -0.01332810   -0.02879374       4
Cr     0.05689426    0.01482485   -3.59562344       5
Co     0.02612801    0.00821336    3.53006190       6
Ni    -1.70128664    0.01577339   -1.74932572       7
Ni     0.02286267   -1.75361628    1.75945625       8
Cr    -1.67408435    0.02440630    1.79987258       9
Co     0.02966091   -1.76423473   -1.77450115      10
Ni     0.03699338    1.80229677   -1.79761483      11
Cr    -1.73092623    1.83115573    0.06389293      12
Cr     1.80349715   -1.73926812   -0.03203377      13
Cr     1.77241518    0.03866967   -1.80039753      14
Co     0.01659434    1.79243259    1.75587293      15
Co     1.79873863    0.01927657    1.78211155      16
Co     1.80514205    1.78447946   -0.02798700      17
Ni     0.00000000    0.00000000    0.00000000      18
          18
Lattice="  24.8920   0.0000   0.0000   0.0000  24.8920   0.0000   0.0000   0.0000  24.8920 " ConfE="      -5937.6558" DelE="          0.7458"
Ni    -3.41551710    0.01624272    0.00529349       1
Ni     0.00325811   -3.47902712    0.01301276       2
Ni     0.04011772    3.56742917   -0.03091366       3
Ni     3.54386948   -0.02367317   -0.02869576       4
Cr     0.10105074    0.05805081   -3.68388251       5
Co     0.03886654    0.02789972    3.58326555       6
Ni    -1.68315740    0.08312838   -1.89705800       7
Ni     0.10467849   -1.78819853    1.92348183       8
Cr    -1.65072928    0.09190949    1.96779749       9
Co     0.06087917   -1.75752382   -1.90990075      10
Ni     0.03956628    1.78592670   -1.79687094      11
Cr    -1.65230717    1.70895936    0.06225242      12
Cr     1.67668841   -1.65235967   -0.01421930      13
Cr     1.69883808    0.02621175   -1.74799383      14
Co    -0.00624974    1.73319981    1.72203308      15
Co     1.76244799    0.01321708    1.74590055      16
Co     1.76336468    1.73620888   -0.03931796      17
Ni    -1.09912071   -1.05244513    0.05953637      18
          18
Lattice="  24.8920   0.0000   0.0000   0.0000  24.8920   0.0000   0.0000   0.0000  24.8920 " ConfE="      -5938.0694" DelE="          0.3322"
Ni    -3.48198902    0.02838934    0.00966954       1
Ni     0.04155123   -3.55941715    0.01188063       2
Ni     0.05055918    3.58391766   -0.03176650       3
Ni     3.56957638   -0.01701816   -0.03161751       4
Cr     0.07356278    0.02276056   -3.62719085       5
Co     0.03068399    0.00635355    3.55956841       6
Ni    -1.64643580    0.04659521   -1.72285191       7
Ni     0.05291604   -1.73267938    1.77104619       8
Cr    -1.63589271    0.06139954    1.77518174       9
Co     0.09617588   -1.72089895   -1.74377442      10
Ni     0.05004769    1.79051402   -1.78983473      11
Cr    -1.67430971    1.77029028    0.07075988      12
Cr     1.74842918   -1.68205850   -0.02369504      13
Cr     1.75609719    0.04678183   -1.76371216      14
Co    -0.00195309    1.72814625    1.70596382      15
Co     1.77691295    0.01766290    1.74124778      16
Co     1.77632524    1.73931358   -0.04029554      17
Ni    -1.68322712   -1.70116883    0.01770403      18
