          18
Lattice="  24.8920   0.0000   0.0000   0.0000  24.8920   0.0000   0.0000   0.0000  24.8920 " ConfE="      -5950.0572" DelE="          0.0000"
Ni    -0.00675300    3.50919877    0.01984731       1
Cr    -3.54882426   -0.02677633   -0.00957255       2
Ni     0.03065345    0.00004654    3.59152115       3
Co    -0.02307903   -0.02972120   -3.53479410       4
Co     3.52645755   -0.03021665   -0.02631865       5
Cr     0.00118488   -3.56609780   -0.00424483       6
Ni    -1.76061055    1.71688570   -0.01392904       7
Ni    -1.77524365   -1.74914924   -0.02274555       8
Ni    -0.03321686   -1.74239187   -1.77150107       9
Co    -0.03846300    1.72698186   -1.80089045      10
Ni     1.76130073   -0.01576033    1.78074974      11
Co    -0.02209025    1.79051481    1.83097728      12
Cr    -1.74021502    0.01884736    1.82696476      13
Co     1.79119833    1.79437101    0.01100337      14
Cr     1.79727513    0.01734471   -1.72920033      15
Co    -0.01565656   -1.83718808    1.78825759      16
Co     1.75867440   -1.82337380    0.01520608      17
Ni     0.00000000    0.00000000    0.00000000      18
          18
Lattice="  24.8920   0.0000   0.0000   0.0000  24.8920   0.0000   0.0000   0.0000  24.8920 " ConfE="      -5949.3822" DelE="          0.6751"
Ni     0.02582246    3.59431859    0.04672040       1
Cr    -3.43903640   -0.03047711   -0.02252642       2
Ni     0.03111400   -0.00409719    3.58980259       3
Co    -0.03755093   -0.03510729   -3.49095618       4
Co     3.51890441   -0.02645728   -0.02854166       5
Cr     0.04621019   -3.64797806    0.02075703       6
Ni    -1.76854145    1.92844444    0.08630358       7
Ni    -1.78177123   -1.96632850    0.03655234       8
Ni     0.03401496   -1.93134980   -1.78649852       9
Co    -0.00897750    1.92868510   -1.83198489      10
Ni     1.69398410   -0.01920102    1.72068474      11
Co    -0.02552364    1.79034608    1.82327314      12
Cr    -1.63612553    0.00011981    1.72216902      13
Co     1.73221495    1.77325797   -0.00655601      14
Cr     1.64280248    0.03023621   -1.64715653      15
Co    -0.02111631   -1.84565360    1.77049372      16
Co     1.71894922   -1.80413421    0.00784622      17
Ni    -0.91824378    0.00139111   -0.87997043      18
          18
Lattice="  24.8920   0.0000   0.0000   0.0000  24.8920   0.0000   0.0000   0.0000  24.8920 " ConfE="      -5949.9885" DelE="          0.0687"
Ni     0.00018377    3.52047179    0.03037205       1
Cr    -3.59791612   -0.03249085    0.03252775       2
Ni     0.04074014   -0.00379864    3.61579995       3
Co     0.01249947   -0.02176184   -3.58659997       4
Co     3.54597696   -0.03004772   -0.02507291       5
Cr     0.01119498   -3.59790099    0.00798070       6
Ni    -1.71142533    1.69073853    0.02530614       7
Ni    -1.74688951   -1.75521382    0.01588923       8
Ni     0.01450873   -1.75572022   -1.73600346       9
Co     0.00161794    1.72890670   -1.77857832      10
Ni     1.72468630   -0.02053147    1.74384214      11
Co    -0.02021351    1.75813973    1.82680712      12
Cr    -1.66700309    0.01778246    1.78607623      13
Co     1.76495625    1.75370459    0.00716351      14
Cr     1.70476695    0.04035495   -1.66714208      15
Co    -0.01388129   -1.82282017    1.78524756      16
Co     1.74144555   -1.80015235    0.01793079      17
Ni    -1.73927603   -0.02466901   -1.76650452      18
