          18
Lattice="  24.8920   0.0000   0.0000   0.0000  24.8920   0.0000   0.0000   0.0000  24.8920 " ConfE="      -5924.0468" DelE="          0.0000"
Co    -0.01293290   -3.44666383    0.01245432       1
Cr     0.01804230   -0.00697404   -3.52204991       2
Ni     0.06393241    3.60753917    0.06739977       3
Ni     0.05878735    0.05662009    3.57081593       4
Co    -3.45335321    0.02789544    0.03441935       5
Ni     3.56665489    0.00205907    0.01927811       6
Cr    -1.64654838   -1.82407782    0.03521003       7
Co     1.72746041   -1.71137318   -0.08311234       8
Cr    -1.71922977    0.02894582   -1.75211969       9
Cr     1.71520894   -0.05555507   -1.72044915      10
Co     0.00323076   -1.72692885    1.84802183      11
Cr     0.01130748    1.83783191   -1.75293395      12
Co     0.01774393    1.82603725    1.80784073      13
Cr    -1.72402322    0.05346287    1.78714634      14
Co     1.76825272    0.06078025    1.74597802      15
Co    -1.72274513    1.83053059    0.02692351      16
Cr     1.80777418    1.76565357    0.02665205      17
Ni     0.00000000    0.00000000    0.00000000      18
          18
Lattice="  24.8920   0.0000   0.0000   0.0000  24.8920   0.0000   0.0000   0.0000  24.8920 " ConfE="      -5923.0981" DelE="          0.9488"
Co    -0.01695614   -3.47467683   -0.00898458       1
Cr     0.01628719   -0.05009156   -3.49223960       2
Ni     0.05424805    3.64746155    0.03601192       3
Ni     0.10401383    0.06202879    3.45942263       4
Co    -3.50472918    0.04167899    0.03922237       5
Ni     3.57384799   -0.00202283    0.05728783       6
Cr    -1.84119274   -1.90704737    0.16792645       7
Co     1.87167572   -1.86132907   -0.02963789       8
Cr    -1.97466340    0.22305061   -1.74956830       9
Cr     1.89850050    0.03623649   -1.68791452      10
Co    -0.00318454   -1.80483234    1.80563042      11
Cr     0.01231767    1.71345332   -1.66603928      12
Co    -0.00542787    1.96229379    1.82476624      13
Cr    -1.61526471    0.05032573    1.63773378      14
Co     1.13388938    0.10282892    1.00260021      15
Co    -1.69109287    1.80177916    0.03132302      16
Cr     1.83898947    1.90095216   -0.06785056      17
Ni    -0.10450323   -0.90902191   -0.97551913      18
          18
Lattice="  24.8920   0.0000   0.0000   0.0000  24.8920   0.0000   0.0000   0.0000  24.8920 " ConfE="      -5924.5231" DelE="         -0.4763"
Co     0.00976040   -3.49629763    0.05829695       1
Cr     0.01251283    0.03921893   -3.55686344       2
Ni     0.07016504    3.61631008    0.07484114       3
Ni     0.10010582    0.05923969    3.51833559       4
Co    -3.47322851    0.04088351    0.04418507       5
Ni     3.52586174    0.01233307    0.05448480       6
Cr    -1.62780905   -1.77915975    0.12246160       7
Co     1.77346860   -1.69303022    0.01980590       8
Cr    -1.75228167    0.07379972   -1.71751803       9
Cr     1.77107631    0.02668256   -1.75576608      10
Co     0.03607020   -1.69753054    1.80939279      11
Cr     0.01712913    1.81140941   -1.72191607      12
Co     0.08095142    1.81101321    1.79927969      13
Cr    -1.73015884    0.08298011    1.75934321      14
Co     0.09356941    0.07502199    0.03803741      15
Co    -1.71640835    1.83169965    0.04986673      16
Cr     1.79466893    1.75558733    0.05907835      17
Ni     0.02985363   -1.75502329   -1.74394405      18
