          18
Lattice="  24.8920   0.0000   0.0000   0.0000  24.8920   0.0000   0.0000   0.0000  24.8920 " ConfE="      -5925.6169" DelE="          0.0000"
Co    -3.47227025    0.06026725   -0.00987149       1
Co     0.02639007    0.02892281    3.49605717       2
Ni     3.57885908    0.02012253   -0.04470660       3
Co     0.01398753   -0.00784846   -3.63824418       4
Cr    -0.01874779   -3.52305243   -0.04332984       5
Co    -0.01385291    3.58628775   -0.05946699       6
Ni    -1.74890059   -1.69780941   -0.08405826       7
Cr    -1.74060454    1.76702042   -0.07278823       8
Cr    -0.18379286   -1.63488377    1.81367787       9
Ni    -0.03296547    1.75610551    1.70041056      10
Co    -1.75770227    0.02204838   -1.86946721      11
Cr     1.81817853    0.02956043    1.77092760      12
Co     1.77297891   -0.01124379   -1.81565062      13
Cr     0.07914342   -1.68846054   -1.85496251      14
Co    -0.00564665    1.76266025   -1.80766618      15
Ni     1.79035094   -1.75462694    0.04818154      16
Ni     1.78806454    1.79791078   -0.04519858      17
Co     0.00000000    0.00000000    0.00000000      18
          18
Lattice="  24.8920   0.0000   0.0000   0.0000  24.8920   0.0000   0.0000   0.0000  24.8920 " ConfE="      -5924.9614" DelE="          0.6555"
Co    -3.40837719    0.02652150    0.01433204       1
Co     0.01042689    0.01154427    3.38017114       2
Ni     3.58053488    0.02114553   -0.03570398       3
Co     0.00333917   -0.00992832   -3.63317589       4
Cr     0.00089200   -3.61066950   -0.10656085       5
Co     0.00595316    3.64269060   -0.06125469       6
Ni    -1.79366487   -1.90131550   -0.14649591       7
Cr    -1.70288394    1.85975635   -0.10119137       8
Cr    -0.13421675   -1.90495848    1.78093229       9
Ni     0.05390465    1.93554943    1.74803161      10
Co    -1.70487897   -0.00190271   -1.79095205      11
Cr     1.73803357    0.03620906    1.74319638      12
Co     1.72894350   -0.01262987   -1.78178487      13
Cr     0.04430527   -1.66234168   -1.80382289      14
Co    -0.01201386    1.75599355   -1.77026319      15
Ni     1.74026661   -1.72332050    0.03819103      16
Ni     1.75207957    1.77361436   -0.03445792      17
Co    -0.73553441   -0.01400796    0.71210739      18
          18
Lattice="  24.8920   0.0000   0.0000   0.0000  24.8920   0.0000   0.0000   0.0000  24.8920 " ConfE="      -5925.5835" DelE="          0.0333"
Co    -3.52676272    0.02534243   -0.06573171       1
Co     0.04885215    0.04071467    3.53492864       2
Ni     3.59157467    0.01443182   -0.04778919       3
Co     0.00667612   -0.00519004   -3.65658938       4
Cr    -0.00728613   -3.57766573   -0.06944058       5
Co    -0.00844681    3.60918961   -0.06311068       6
Ni    -1.67401246   -1.68327376   -0.12335646       7
Cr    -1.71313019    1.76983912   -0.10856194       8
Cr    -0.06344458   -1.71421276    1.78299697       9
Ni     0.00551618    1.75640154    1.66076169      10
Co    -1.73538002    0.03575679   -1.84142010      11
Cr     1.77196058    0.01506313    1.74881545      12
Co     1.73520216   -0.01822108   -1.80222268      13
Cr     0.08408311   -1.65676986   -1.88472597      14
Co    -0.01987997    1.73860419   -1.77079570      15
Ni     1.75589345   -1.72503215    0.01641759      16
Ni     1.76934590    1.76353791   -0.05234511      17
Co    -1.69794534   -0.00901141    1.67414392      18
