          18
Lattice="  24.8920   0.0000   0.0000   0.0000  24.8920   0.0000   0.0000   0.0000  24.8920 " ConfE="      -5927.2103" DelE="          0.0000"
Ni     0.01487882   -0.11516243    3.47747123       1
Co    -0.01697024    3.38545518   -0.09374090       2
Cr     0.00659686   -0.15273106   -3.66706532       3
Cr    -0.07259879   -3.76059348   -0.05740749       4
Cr    -3.59731208   -0.10491292   -0.07249873       5
Co     3.55500392   -0.13261862   -0.09303463       6
Cr    -1.71676539   -0.04395142    1.72972383       7
Cr     1.75804377   -0.06946628    1.71363238       8
Co    -1.77951456    1.63776482   -0.06372821       9
Cr     1.74944450    1.67181071   -0.02174394      10
Co    -0.00419154   -1.89740817    1.67613254      11
Cr    -0.02116301    1.67279448   -1.86891515      12
Cr    -0.02399299   -1.96481949   -1.87380538      13
Cr    -1.74970331   -1.90414987   -0.06961983      14
Cr     1.73973323   -1.89598498   -0.11204445      15
Cr    -1.79280767   -0.12812952   -1.87183145      16
Cr     1.78920344   -0.14710566   -1.86408934      17
Cr     0.00000000    0.00000000    0.00000000      18
          18
Lattice="  24.8920   0.0000   0.0000   0.0000  24.8920   0.0000   0.0000   0.0000  24.8920 " ConfE="      -5926.9045" DelE="          0.3058"
Ni    -0.00594064   -0.12152498    3.41033612       1
Co    -0.00037793    3.40253572   -0.09011479       2
Cr    -0.01636437   -0.09949685   -3.61400972       3
Cr    -0.03965998   -3.84317940   -0.01540774       4
Cr    -3.66649767   -0.11595131   -0.22197524       5
Co     3.60610956   -0.17346218   -0.10616869       6
Cr    -1.92038860   -0.16604401    1.58288687       7
Cr     1.92611013   -0.14776570    1.70377798       8
Co    -1.90122470    1.73496368   -0.11529902       9
Cr     1.99552706    1.74771927   -0.09927115      10
Co    -0.00005617   -1.81405290    1.63577470      11
Cr     0.01116908    1.74872425   -1.79358195      12
Cr     0.02684125   -2.00957633   -1.87643994      13
Cr    -1.60533896   -1.99326444   -0.04303963      14
Cr     1.63087609   -1.86585584   -0.03471658      15
Cr    -1.49024314   -0.11085670   -1.49830181      16
Cr     1.60872231   -0.11457230   -1.64275602      17
Cr     0.03350504    0.93773856    0.93546390      18
          18
Lattice="  24.8920   0.0000   0.0000   0.0000  24.8920   0.0000   0.0000   0.0000  24.8920 " ConfE="      -5927.4700" DelE="         -0.2597"
Ni     0.01370786   -0.14277691    3.48184577       1
Co    -0.01004808    3.48755331   -0.11636414       2
Cr    -0.00492835   -0.12389492   -3.65691930       3
Cr    -0.05227325   -3.88388535   -0.02438887       4
Cr    -3.57899811   -0.11073791   -0.11649026       5
Co     3.56216243   -0.15973085   -0.10765627       6
Cr    -1.62174148   -0.11037433    1.51499928       7
Cr     1.66382248   -0.11721457    1.55184051       8
Co    -1.73732636    1.66249599   -0.10150097       9
Cr     1.75295627    1.65820220   -0.08592299      10
Co     0.00924268   -1.90023911    1.67595158      11
Cr     0.00326993    1.70313548   -1.82498381      12
Cr     0.01301995   -2.02125332   -1.90246884      13
Cr    -1.59088689   -1.98370953   -0.05471290      14
Cr     1.64832228   -1.93863008   -0.09186276      15
Cr    -1.55502778   -0.15140362   -1.63371182      16
Cr     1.63572023   -0.16716548   -1.71460731      17
Cr     0.01097013    1.69693751    1.68133491      18
