          18
Lattice="  24.8920   0.0000   0.0000   0.0000  24.8920   0.0000   0.0000   0.0000  24.8920 " ConfE="      -5939.4723" DelE="          0.0000"
Cr    -3.47321067    0.08389964   -0.02017115       1
Co    -0.00150499   -3.38699329    0.00199886       2
Ni     3.60759182    0.03719981    0.02545023       3
Ni     0.05324251    3.60856143    0.02086311       4
Cr     0.07921590    0.05598316   -3.48441803       5
Co    -0.00553025    0.05870373    3.52827410       6
Co    -1.71421340    0.01401536   -1.74484064       7
Co    -1.72753648    0.01596821    1.74412699       8
Cr     0.02111704   -1.70649312   -1.74166031       9
Cr     0.05674019   -1.69330035    1.75583109      10
Cr    -1.70974237    1.81093240   -0.00455466      11
Co     1.83679591   -1.71369107    0.01209541      12
Co     1.82847172    1.77994411    0.00678689      13
Co     0.05286991    1.80835430   -1.75979157      14
Ni     0.05828633    1.83132745    1.79006341      15
Cr     1.83676653    0.02987343   -1.75707792      16
Cr     1.77287637   -0.00073289    1.75768105      17
Co     0.00000000    0.00000000    0.00000000      18
          18
Lattice="  24.8920   0.0000   0.0000   0.0000  24.8920   0.0000   0.0000   0.0000  24.8920 " ConfE="      -5938.4706" DelE="          1.0017"
Cr    -3.41183147    0.03916881   -0.01383660       1
Co     0.01555570   -3.40080358    0.01106277       2
Ni     3.51102008    0.09093627    0.01439923       3
Ni     0.06617241    3.53524648    0.02003038       4
Cr     0.07211102    0.08840867   -3.59398614       5
Co     0.00440589    0.06518980    3.62429074       6
Co    -1.71153240    0.07688990   -1.88580690       7
Co    -1.75633110    0.09010192    1.94562028       8
Cr     0.10111844   -1.64152160   -1.84839987       9
Cr     0.11745225   -1.66604584    1.92050469      10
Cr    -1.61419138    1.62863371    0.00187132      11
Co     1.74408680   -1.66332690    0.01661077      12
Co     0.91763895    0.75003451   -0.03426605      13
Co     0.03336303    1.85243758   -1.89341114      14
Ni     0.03614599    1.83365693    1.89201758      15
Cr     1.89870198    0.02532702   -1.93509295      16
Cr     1.80018942   -0.01922514    1.90893046      17
Co    -0.95133548   -1.04682248    0.05406027      18
          18
Lattice="  24.8920   0.0000   0.0000   0.0000  24.8920   0.0000   0.0000   0.0000  24.8920 " ConfE="      -5939.5881" DelE="         -0.1158"
Cr    -3.50402823    0.08276902   -0.02304791       1
Co     0.04228099   -3.44164374    0.01205984       2
Ni     3.57429989    0.08532891    0.01752160       3
Ni     0.06978472    3.58824764    0.01372795       4
Cr     0.10121009    0.07806889   -3.48561015       5
Co     0.01282618    0.07470053    3.52453728       6
Co    -1.70610002    0.06085606   -1.77462956       7
Co    -1.72298263    0.07072656    1.77397770       8
Cr     0.06961806   -1.68001054   -1.75729194       9
Cr     0.08311088   -1.66565766    1.78483653      10
Cr    -1.73725173    1.78651937   -0.00082005      11
Co     1.82176707   -1.71896770    0.01200170      12
Co     0.08608900    0.08389916   -0.00522777      13
Co     0.09809635    1.82484359   -1.74550431      14
Ni     0.10292806    1.83916573    1.75789126      15
Cr     1.84445092    0.13658721   -1.70648715      16
Cr     1.80106512    0.06102228    1.71068075      17
Co    -1.70953081   -1.67421529    0.01061131      18
