          18
Lattice="  24.8920   0.0000   0.0000   0.0000  24.8920   0.0000   0.0000   0.0000  24.8920 " ConfE="      -5949.9359" DelE="          0.0000"
Ni     0.04001757    0.02478395    3.48683880       1
Cr     3.47061593   -0.03177240    0.11985909       2
Ni    -0.02398022    0.02377808   -3.63436477       3
Co    -3.58398501    0.06634425   -0.04963356       4
Co    -0.01060530   -3.48851190   -0.03599283       5
Co    -0.07043779    3.55095389   -0.05354930       6
Ni     0.03013549   -1.71589924    1.75018535       7
Ni    -0.03533971    1.79460591    1.74563264       8
Co     1.81989980   -1.71043619   -0.05955178       9
Ni     1.74022227    1.73521230   -0.01265708      10
Ni    -1.81448326    0.04460860    1.75524953      11
Cr     1.74000836   -0.13146651   -1.79899883      12
Ni    -1.81205334    0.01502157   -1.81648809      13
Ni    -1.81200077   -1.72382363   -0.04189247      14
Cr    -1.83433542    1.81658262   -0.02384681      15
Co    -0.01071145   -1.76693855   -1.81824516      16
Ni    -0.01947187    1.75389165   -1.80063374      17
Ni     0.00000000    0.00000000    0.00000000      18
          18
Lattice="  24.8920   0.0000   0.0000   0.0000  24.8920   0.0000   0.0000   0.0000  24.8920 " ConfE="      -5949.3913" DelE="          0.5446"
Ni     0.05538174    0.02183816    3.43500491       1
Cr     3.39560987   -0.00713650    0.13954484       2
Ni    -0.01545997    0.03348309   -3.62702186       3
Co    -3.59269859    0.06490935   -0.04161891       4
Co    -0.03358916   -3.52308723   -0.03075931       5
Co    -0.09262256    3.60474116   -0.06368227       6
Ni    -0.02351332   -1.86633420    1.81303808       7
Ni    -0.07518102    1.91227555    1.75814835       8
Co     1.86889938   -1.92862389   -0.11125206       9
Ni     1.75957154    1.91184160   -0.05746185      10
Ni    -1.74578020    0.04267186    1.71538241      11
Cr     1.69315594   -0.10421332   -1.71995989      12
Ni    -1.78172960    0.02371398   -1.77779176      13
Ni    -1.77159317   -1.70682845   -0.02586508      14
Cr    -1.82244364    1.81582073   -0.01692011      15
Co     0.01238574   -1.71416031   -1.75966645      16
Ni    -0.02424056    1.75695542   -1.77234353      17
Ni     0.69333473   -0.03132473    0.63141600      18
          18
Lattice="  24.8920   0.0000   0.0000   0.0000  24.8920   0.0000   0.0000   0.0000  24.8920 " ConfE="      -5950.1217" DelE="         -0.1857"
Ni    -0.01259895    0.03430329    3.52786369       1
Cr     3.56677415   -0.02434235    0.03358895       2
Ni    -0.02573076    0.02536559   -3.64781917       3
Co    -3.60506584    0.06551540   -0.04952639       4
Co    -0.02282544   -3.50999583   -0.03298113       5
Co    -0.07617959    3.57341509   -0.05786649       6
Ni    -0.01227534   -1.70618158    1.71780779       7
Ni    -0.05506978    1.78842723    1.71788249       8
Co     1.79292522   -1.73116906   -0.07917149       9
Ni     1.71364301    1.72311671   -0.04534617      10
Ni    -1.78740757    0.05154751    1.71855772      11
Cr     1.68571133   -0.14582860   -1.73065668      12
Ni    -1.80995508    0.01829034   -1.80305537      13
Ni    -1.78876012   -1.69376776   -0.04845520      14
Cr    -1.84366144    1.80943122   -0.02972568      15
Co    -0.00310628   -1.71189529   -1.78147214      16
Ni    -0.03037194    1.71546109   -1.76679745      17
Ni     1.73264491    0.00661826    1.71702499      18
