          18
Lattice="  24.8920   0.0000   0.0000   0.0000  24.8920   0.0000   0.0000   0.0000  24.8920 " ConfE="      -5949.5702" DelE="          0.0000"
Cr    -0.01573932    0.08094127   -3.44865401       1
Ni     0.03769105    3.54531039    0.06751873       2
Cr     0.02781543    0.01346470    3.67797677       3
Co    -0.01463839   -3.53431149    0.07996415       4
Co    -3.44394642   -0.03749899    0.06873612       5
Ni     3.51141840   -0.01479810    0.07072586       6
Co    -1.67466750    0.01528631   -1.66757521       7
Cr     1.70705371    0.02437032   -1.71726396       8
Cr    -1.67073791    1.80101104    0.01503298       9
Cr     1.72771822    1.75461882    0.00912458      10
Co    -0.01374934   -1.80308461   -1.73321199      11
Co    -0.00448963    1.75436412    1.86591606      12
Co    -0.00808964   -1.75252747    1.86813663      13
Cr    -1.67955796   -1.85273011    0.06953451      14
Co     1.68860408   -1.71395664    0.03177299      15
Cr    -1.68124117   -0.03993645    1.80490898      16
Co     1.71348553    0.01683361    1.79993084      17
Cr     0.00000000    0.00000000    0.00000000      18
          18
Lattice="  24.8920   0.0000   0.0000   0.0000  24.8920   0.0000   0.0000   0.0000  24.8920 " ConfE="      -5948.7550" DelE="          0.8152"
Cr    -0.00809889    0.05635728   -3.51648197       1
Ni     0.02931851    3.51289719    0.08655989       2
Cr     0.03169949    0.05795865    3.67373380       3
Co    -0.01073067   -3.48336868    0.06906143       4
Co    -3.50929228   -0.04485585    0.07101392       5
Ni     3.52052237   -0.04999755    0.08563535       6
Co    -1.81128981   -0.05613328   -1.68877985       7
Cr     1.83712694   -0.05419039   -1.77560202       8
Cr    -1.90041746    1.82302288    0.11865473       9
Cr     1.91379966    1.76797545    0.13100352      10
Co    -0.07745874   -1.74905021   -1.87898325      11
Co    -0.00453327    1.70024291    1.74924223      12
Co    -0.01366541   -1.74196529    1.94999669      13
Cr    -1.54356215   -1.72399190    0.01831659      14
Co     1.15563979   -1.21138558   -0.01801446      15
Cr    -1.55398329   -0.04083715    1.67898163      16
Co     1.73424538    0.06209048    1.84056826      17
Cr    -0.00580666    1.06575339   -0.95013728      18
          18
Lattice="  24.8920   0.0000   0.0000   0.0000  24.8920   0.0000   0.0000   0.0000  24.8920 " ConfE="      -5950.0513" DelE="         -0.4811"
Cr     0.00931352    0.00374230   -3.47337750       1
Ni     0.04492068    3.56672593    0.08729138       2
Cr     0.04467603    0.00547155    3.62487010       3
Co    -0.00286473   -3.52012886    0.08459426       4
Co    -3.48024961   -0.04544565    0.07427341       5
Ni     3.48258859   -0.06063130    0.09148331       6
Co    -1.72294151   -0.02982933   -1.67203737       7
Cr     1.72113508   -0.04452282   -1.65562864       8
Cr    -1.72650522    1.77256754    0.08290082       9
Cr     1.80428940    1.78280445    0.08528632      10
Co     0.03707622   -1.76425014   -1.67726628      11
Co     0.00831806    1.75839442    1.83754695      12
Co     0.01053848   -1.76313615    1.83851731      13
Cr    -1.69556428   -1.84130413    0.07105772      14
Co     0.07685590   -0.01831588    0.04269021      15
Cr    -1.64701305   -0.06698362    1.78743154      16
Co     1.73054650   -0.01847592    1.81575369      17
Cr     0.00906699    1.73606055   -1.70760147      18
