          18
Lattice="  24.8920   0.0000   0.0000   0.0000  24.8920   0.0000   0.0000   0.0000  24.8920 " ConfE="      -5940.8641" DelE="          0.0000"
Cr    -0.00626647   -3.49719263   -0.01311326       1
Co    -0.01129548   -0.00439698    3.48411707       2
Ni     0.05818296    3.65457588   -0.02193094       3
Cr    -3.48542189    0.10215909   -0.08622855       4
Cr     0.06484977    0.06812866   -3.60203045       5
Co     3.55139345    0.03559229    0.00371255       6
Ni    -1.74760687   -1.74681007   -0.02832551       7
Cr    -1.71523559    0.03161758    1.71807756       8
Co     1.76699092   -0.01615270    1.72466573       9
Cr     1.68229575   -1.74328952   -0.00536130      10
Cr     0.05872980    1.83488091    1.74880412      11
Co     0.00818398   -1.71420307   -1.85618015      12
Co    -1.72720116    1.85390368   -0.04256595      13
Cr     0.04815769    1.84715662   -1.79922458      14
Cr     1.82286455    1.83735520   -0.03286391      15
Co    -1.71868996    0.08033870   -1.83584089      16
Co     1.80704271    0.04378970   -1.80782560      17
Cr     0.00000000    0.00000000    0.00000000      18
          18
Lattice="  24.8920   0.0000   0.0000   0.0000  24.8920   0.0000   0.0000   0.0000  24.8920 " ConfE="      -5940.0545" DelE="          0.8096"
Cr    -0.00594213   -3.48681933   -0.06208695       1
Co    -0.02563318    0.04934123    3.42806305       2
Ni     0.04688293    3.66100268   -0.02671711       3
Cr    -3.62398488    0.12305781   -0.17885033       4
Cr     0.04973871    0.04738006   -3.55553365       5
Co     3.65041243    0.06539206   -0.00322303       6
Ni    -1.89781470   -1.74823406   -0.06756466       7
Cr    -1.98600874    0.07556420    1.67853073       8
Co     1.95282270    0.08368397    1.77411191       9
Cr     1.87824288   -1.69011051   -0.06699531      10
Cr    -0.01577569    1.77356221    1.62468247      11
Co     0.02589470   -1.64272144   -1.70379628      12
Co    -1.73345269    1.80836610   -0.04459794      13
Cr     0.01871126    1.77363689   -1.69710541      14
Cr     1.75110214    1.69607412   -0.01726446      15
Co    -1.70801296    0.07767179   -1.77711146      16
Co     1.80605239    0.05116786   -1.76149722      17
Cr     0.03369894   -0.80708683    0.89994009      18
          18
Lattice="  24.8920   0.0000   0.0000   0.0000  24.8920   0.0000   0.0000   0.0000  24.8920 " ConfE="      -5940.6438" DelE="          0.2203"
Cr    -0.00122193   -3.52271309   -0.09676543       1
Co    -0.01343442    0.07378216    3.52258386       2
Ni     0.05821716    3.65534018   -0.03028556       3
Cr    -3.56715544    0.10675408   -0.13743685       4
Cr     0.05705932    0.07488367   -3.59238745       5
Co     3.61497091    0.04186595   -0.00520773       6
Ni    -1.77959675   -1.70060997   -0.09086071       7
Cr    -1.79717144    0.08221334    1.63513481       8
Co     1.82613556    0.02955137    1.70704805       9
Cr     1.69757629   -1.65109800   -0.09340544      10
Cr     0.03072471    1.62386960    1.48197226      11
Co     0.02703008   -1.64287204   -1.78241437      12
Co    -1.75178894    1.83739640   -0.08201704      13
Cr     0.03707936    1.76994034   -1.68790794      14
Cr     1.84731009    1.77970645   -0.06747646      15
Co    -1.70826834    0.10325852   -1.83793280      16
Co     1.80858800    0.06565218   -1.79064211      17
Cr    -0.01132689   -1.54940776    1.60730879      18
