          18
Lattice="  24.8920   0.0000   0.0000   0.0000  24.8920   0.0000   0.0000   0.0000  24.8920 " ConfE="      -5949.9057" DelE="          0.0000"
Ni     0.05255725    0.00646849    3.47733150       1
Co     0.06335648    3.50744431   -0.02298926       2
Co     0.03671394   -0.01043908   -3.62880676       3
Co     0.02696013   -3.57739646   -0.06511085       4
Cr    -3.45924024   -0.01391001   -0.04326741       5
Ni     3.57957391    0.00124840   -0.01624979       6
Cr    -1.64582054    0.04831945    1.63755915       7
Ni     1.77310969    0.04598503    1.74464476       8
Co    -1.69011493    1.77509405    0.00350792       9
Co     1.78412680    1.76235418   -0.02364039      10
Co     0.07448859   -1.79939566    1.72895997      11
Co     0.03675844    1.75278101   -1.83845039      12
Co     0.03197860   -1.78219229   -1.85131546      13
Co    -1.72291401   -1.77484289   -0.06194600      14
Ni     1.79901258   -1.78540290   -0.03475469      15
Co    -1.72918427    0.00010237   -1.81677098      16
Co     1.81117408   -0.00772638   -1.82402247      17
Co     0.00000000    0.00000000    0.00000000      18
          18
Lattice="  24.8920   0.0000   0.0000   0.0000  24.8920   0.0000   0.0000   0.0000  24.8920 " ConfE="      -5945.7436" DelE="          4.1621"
Ni     0.05045587   -0.03623073    3.46504598       1
Co     0.06294293    3.43990990    0.05735410       2
Co     0.04081240   -1.00394800   -3.28944557       3
Co     0.02223061   -3.58362130   -0.05165156       4
Cr    -3.53813671   -0.03508955    0.00108363       5
Ni     3.64614793   -0.00425982   -0.02215482       6
Cr    -0.88659936    0.19164047    1.08315496       7
Ni     1.74417451    0.00876093    1.71743111       8
Co    -1.95515780    1.87642835    0.04608260       9
Co     1.95691599    1.75482096    0.11250081      10
Co     0.04259297   -1.80241891    1.63299812      11
Co    -0.15863331    1.20169454   -3.25332070      12
Co    -0.04945198   -1.32908311   -1.01828468      13
Co    -1.98252696   -1.80752665    0.04620508      14
Ni     1.96347628   -1.78335236    0.00604151      15
Co    -1.85949344    0.01875153   -1.83769055      16
Co     1.87650371   -0.00084252   -1.87929973      17
Co     0.02062362    1.23856529   -0.97678389      18
          18
Lattice="  24.8920   0.0000   0.0000   0.0000  24.8920   0.0000   0.0000   0.0000  24.8920 " ConfE="      -5949.9057" DelE="          0.0000"
Ni     0.05235074    0.00633400    3.47672570       1
Co     0.06329964    3.50747931   -0.02233724       2
Co     0.03182575   -1.78198483   -1.85115464       3
Co     0.02694457   -3.57716247   -0.06476854       4
Cr    -3.45997412   -0.01353687   -0.04340612       5
Ni     3.58005940    0.00152431   -0.01631945       6
Cr    -1.64671124    0.04844495    1.63793915       7
Ni     1.77342552    0.04600237    1.74435254       8
Co    -1.69027059    1.77507347    0.00409274       9
Co     1.78444268    1.76272084   -0.02312566      10
Co     0.07408726   -1.79900255    1.72868192      11
Co     0.03695854   -0.01012768   -3.62869013      12
Co    -0.00028141    0.00029679    0.00032617      13
Co    -1.72323383   -1.77460042   -0.06184600      14
Ni     1.79936202   -1.78524430   -0.03441068      15
Co    -1.72910634    0.00030145   -1.81660084      16
Co     1.81136306   -0.00771178   -1.82376232      17
Co     0.03675680    1.75306709   -1.83812709      18
