          18
Lattice="  24.8920   0.0000   0.0000   0.0000  24.8920   0.0000   0.0000   0.0000  24.8920 " ConfE="      -5922.1789" DelE="          0.0000"
Ni     0.03845697   -0.03799215    3.51537704       1
Co     0.02090957    3.42703908    0.04916448       2
Ni     0.04608156   -0.06408444   -3.57286773       3
Co     0.04304122   -3.63834587   -0.00825923       4
Cr    -3.44968808   -0.10331732   -0.01852476       5
Cr     3.53233938    0.03876676   -0.05130946       6
Cr    -1.65756635    0.03463263    1.64544917       7
Ni     1.75428842    0.01778378    1.73055454       8
Cr    -1.63097921    1.80078202   -0.00537633       9
Cr     1.77012860    1.77259529   -0.12879837      10
Ni     0.02330929   -1.84598932    1.76840804      11
Co     0.00972612    1.75333153   -1.80281729      12
Co     0.02622831   -1.84357674   -1.79899837      13
Cr    -1.62864262   -1.98108145   -0.13055462      14
Ni     1.77073347   -1.81344699   -0.02020482      15
Ni    -1.72338746   -0.07111044   -1.79367701      16
Co     1.82743060   -0.03733728   -1.79143992      17
Co     0.00000000    0.00000000    0.00000000      18
          18
Lattice="  24.8920   0.0000   0.0000   0.0000  24.8920   0.0000   0.0000   0.0000  24.8920 " ConfE="      -5921.7193" DelE="          0.4596"
Ni     0.04955263   -0.03065359    3.50364548       1
Co     0.00762904    3.41105163    0.04586879       2
Ni     0.04043289   -0.05652190   -3.56661479       3
Co     0.04174441   -3.63101498   -0.00225347       4
Cr    -3.51415760   -0.09874652   -0.01947153       5
Cr     3.62322095   -0.01945771   -0.05260753       6
Cr    -1.76081958   -0.05426947    1.67236961       7
Ni     1.88181783   -0.04532795    1.75984823       8
Cr    -1.85096056    1.87657725   -0.07712128       9
Cr     1.95536275    1.77549504   -0.13742091      10
Ni     0.03696933   -1.79924126    1.74929313      11
Co     0.01910692    1.74325466   -1.76650232      12
Co     0.01970160   -1.80450821   -1.75037537      13
Cr    -1.60629409   -1.91238079   -0.09481088      14
Ni     1.77239721   -1.78652794   -0.01775714      15
Ni    -1.70027454   -0.04390478   -1.73271296      16
Co     1.82050334   -0.02054480   -1.75628993      17
Co     0.00122756    0.84800714    0.61343251      18
          18
Lattice="  24.8920   0.0000   0.0000   0.0000  24.8920   0.0000   0.0000   0.0000  24.8920 " ConfE="      -5922.4656" DelE="         -0.2867"
Ni     0.03685824   -0.06599449    3.53573965       1
Co     0.02445897    3.51082856    0.00316405       2
Ni     0.04536695   -0.06676457   -3.57347004       3
Co     0.04303883   -3.65513625   -0.00898744       4
Cr    -3.50280580   -0.11071394   -0.02698210       5
Cr     3.57819797    0.00859207   -0.05310855       6
Cr    -1.64657007   -0.04846281    1.55871049       7
Ni     1.76982519   -0.04073050    1.69286833       8
Cr    -1.59482519    1.77304905   -0.03689151       9
Cr     1.75099842    1.72870563   -0.15417804      10
Ni     0.02745508   -1.83128167    1.75173665      11
Co     0.02952596    1.71613317   -1.73522637      12
Co     0.02349692   -1.84793506   -1.78894517      13
Cr    -1.59157532   -1.95506195   -0.12515856      14
Ni     1.74686628   -1.80156494   -0.03382804      15
Ni    -1.68335429   -0.08009471   -1.73535272      16
Co     1.82117228   -0.03535091   -1.76164257      17
Co     0.04077629    1.70142066    1.70181395      18
