          18
Lattice="  24.8920   0.0000   0.0000   0.0000  24.8920   0.0000   0.0000   0.0000  24.8920 " ConfE="      -5933.9256" DelE="          0.0000"
Ni    -3.50543578   -0.08493201    0.04406230       1
Ni     0.00375424   -3.64968114    0.04375396       2
Ni     0.01011243   -0.08730016   -3.48231002       3
Cr     0.05764907    3.42741764    0.02406921       4
Co     0.02851876   -0.10540865    3.61365415       5
Cr     3.57357681   -0.03663258   -0.01289980       6
Ni    -1.74330209   -0.08572342    1.80193400       7
Ni     1.77269737   -0.05230599    1.78118933       8
Co    -0.03385363    1.75079024    1.74440250       9
Ni    -1.73231171   -1.86683192    0.04700517      10
Co    -1.74188632   -0.01702611   -1.72862733      11
Ni     1.79502097   -0.09192439   -1.73196037      12
Cr     0.03507810    1.75227616   -1.71366548      13
Ni     0.02515381   -1.87474800   -1.71228222      14
Co     1.81276999    1.72536791    0.00799377      15
Co     0.05985309   -1.90002205    1.84274103      16
Co     1.83099297   -1.86700895    0.07317397      17
Ni     0.00000000    0.00000000    0.00000000      18
          18
Lattice="  24.8920   0.0000   0.0000   0.0000  24.8920   0.0000   0.0000   0.0000  24.8920 " ConfE="      -5932.8555" DelE="          1.0700"
Ni    -3.49756635   -0.05948925    0.03505111       1
Ni    -0.01177747   -3.59132001    0.00139099       2
Ni     0.01948746   -0.17597387   -3.45434116       3
Cr     0.07870646    3.48424726    0.01376851       4
Co     0.05007681   -0.15464665    3.66366535       5
Cr     3.58132112   -0.00200793   -0.02336157       6
Ni    -1.73678462   -0.11993688    1.83116431       7
Ni     1.72457361   -0.04497063    1.73957690       8
Co     0.00714415    1.78412458    2.00827960       9
Ni    -1.89829723   -1.94129451    0.10189631      10
Co    -1.88725335   -0.03487386   -1.87945294      11
Ni     1.88059516   -0.04711722   -1.76741863      12
Cr     0.10556255    1.78308516   -2.01451215      13
Ni    -0.00680533   -1.17751286   -1.02532922      14
Co     1.65063721    1.69505565   -0.01055859      15
Co     0.04622029   -1.89120579    1.81743661      16
Co     1.94534612   -1.88657891    0.11730970      17
Ni    -0.95052667    1.16302167   -0.07203052      18
          18
Lattice="  24.8920   0.0000   0.0000   0.0000  24.8920   0.0000   0.0000   0.0000  24.8920 " ConfE="      -5934.1759" DelE="         -0.2503"
Ni    -3.52107995   -0.10722088    0.03791196       1
Ni     0.00083730   -3.61454340    0.00904827       2
Ni     0.01764229   -0.14690976   -3.45610392       3
Cr     0.08344961    3.47055574   -0.01182556       4
Co     0.04219948   -0.12592393    3.63939608       5
Cr     3.54040402   -0.04806622   -0.02198054       6
Ni    -1.72572856   -0.10943511    1.80729184       7
Ni     1.77109534   -0.06137356    1.78761560       8
Co     0.00116619    1.73223572    1.81239671       9
Ni    -1.69431614   -1.85384489   -0.00002477      10
Co    -1.72773966   -0.07772723   -1.75705779      11
Ni     1.77621879   -0.14273194   -1.73848196      12
Cr     0.06160904    1.76208348   -1.78428910      13
Ni     0.04572879   -0.07808753   -0.03023448      14
Co     1.76647957    1.72246672    0.00319362      15
Co     0.06715371   -1.91299901    1.86477184      16
Co     1.82513132   -1.87626390    0.05889119      17
Ni    -1.72679598    1.68194745    0.01764061      18
