          18
Lattice="  24.8920   0.0000   0.0000   0.0000  24.8920   0.0000   0.0000   0.0000  24.8920 " ConfE="      -5946.3011" DelE="          0.0000"
Ni    -0.06116532   -0.00223020    3.50569878       1
Ni    -0.06808099   -3.57480642   -0.05905007       2
Co    -0.04602461    3.46343822    0.01995234       3
Cr    -3.64378703    0.00074442   -0.04151313       4
Cr     3.47404613   -0.03256244   -0.08066744       5
Co    -0.00229802   -0.03902527   -3.61420809       6
Ni    -1.77852704    0.01881987    1.70458667       7
Co     1.68646983    0.00159239    1.74636289       8
Co    -1.84159761    1.74873253   -0.03814305       9
Co     1.68679286    1.73724683   -0.01050811      10
Ni    -0.06356468    1.73776412   -1.83083483      11
Ni    -0.06526421   -1.79076313   -1.82363977      12
Co    -1.84194659   -0.04148871   -1.78657090      13
Co     1.71978169   -0.04325216   -1.83062587      14
Cr     0.00109909   -1.82789711    1.73074968      15
Co    -1.83525024   -1.77986131   -0.03421615      16
Co     1.74557373   -1.81338581   -0.05490717      17
Cr     0.00000000    0.00000000    0.00000000      18
          18
Lattice="  24.8920   0.0000   0.0000   0.0000  24.8920   0.0000   0.0000   0.0000  24.8920 " ConfE="      -5945.5057" DelE="          0.7954"
Ni    -0.06964341   -0.00993193    3.44184695       1
Ni    -0.07385310   -3.57903350   -0.05612064       2
Co    -0.04920984    3.43388179    0.01018637       3
Cr    -3.70732341   -0.02830999   -0.05930694       4
Cr     3.56157619   -0.05784669   -0.12318963       5
Co     0.00169624   -0.03146443   -3.61117031       6
Ni    -1.91785299   -0.02363316    1.74056182       7
Co     1.80596059   -0.04401084    1.76365313       8
Co    -1.92241482    1.75223180   -0.03473561       9
Co     1.84337229    1.78144039   -0.08805787      10
Ni    -0.07185265    1.71528344   -1.78045322      11
Ni    -0.07213200   -1.74381430   -1.77513806      12
Co    -1.84969163   -0.02743705   -1.75402407      13
Co     1.69745691   -0.02386072   -1.76504295      14
Cr    -0.01200800   -1.79969454    1.69594334      15
Co    -1.82028761   -1.73453148   -0.01499768      16
Co     1.71552842   -1.75823165   -0.03353898      17
Cr     0.00956705    0.74124414    0.64074287      18
          18
Lattice="  24.8920   0.0000   0.0000   0.0000  24.8920   0.0000   0.0000   0.0000  24.8920 " ConfE="      -5946.0834" DelE="          0.2177"
Ni    -0.06204084   -0.02464695    3.53097135       1
Ni    -0.07285980   -3.58700624   -0.06469410       2
Co    -0.04195054    3.53886497   -0.03974654       3
Cr    -3.66508036   -0.01320217   -0.05731048       4
Cr     3.51383106   -0.04399601   -0.09512411       5
Co    -0.00400280   -0.04412044   -3.63257995       6
Ni    -1.77476344   -0.03416117    1.66219615       7
Co     1.67423712   -0.03523583    1.70830300       8
Co    -1.85043334    1.74383321   -0.05432315       9
Co     1.69283258    1.71739787   -0.03905706      10
Ni    -0.07346085    1.69354447   -1.77600176      11
Ni    -0.07064208   -1.76061774   -1.80172657      12
Co    -1.86300737   -0.04926295   -1.77976606      13
Co     1.71317312   -0.04433240   -1.81204796      14
Cr     0.01546925   -1.78432303    1.68564415      15
Co    -1.84485804   -1.79556583   -0.05907497      16
Co     1.72137287   -1.78808735   -0.05536027      17
Cr    -0.04036097    1.71824437    1.61760661      18
