          18
Lattice="  24.8920   0.0000   0.0000   0.0000  24.8920   0.0000   0.0000   0.0000  24.8920 " ConfE="      -5944.9237" DelE="          0.0000"
Co     3.49195553    0.00411417    0.02479553       1
Co    -0.01264823    0.01055471   -3.47492974       2
Ni    -3.52783202    0.02374020    0.04346067       3
Cr    -0.01760547   -0.03348900    3.59925667       4
Co     0.03676202    3.58932299    0.06365263       5
Cr     0.02583670   -3.48479212    0.06392651       6
Ni     1.74487663    1.73723117   -0.03135387       7
Cr     1.77554656   -1.71380151    0.02447463       8
Co    -0.00742155    1.79081717   -1.77928384       9
Cr     0.01237183   -1.70470672   -1.71368465      10
Co     1.76342249   -0.00290844    1.84713348      11
Co    -1.82739469   -0.00044344   -1.75918369      12
Ni    -1.76499348    0.02909179    1.84201669      13
Ni     0.00571839    1.78017779    1.82447776      14
Co     0.00608320   -1.78908959    1.82126027      15
Ni    -1.76802012    1.80049089    0.02013633      16
Co    -1.76595525   -1.77900997    0.04485038      17
Ni     0.00000000    0.00000000    0.00000000      18
          18
Lattice="  24.8920   0.0000   0.0000   0.0000  24.8920   0.0000   0.0000   0.0000  24.8920 " ConfE="      -5944.5493" DelE="          0.3744"
Co     3.47691085    0.01710688    0.02834426       1
Co    -0.00588473    0.01152939   -3.45832028       2
Ni    -3.52397035    0.02467550    0.03305787       3
Cr    -0.00826439   -0.03107313    3.60621499       4
Co     0.02545110    3.62883122    0.07087207       5
Cr     0.02905487   -3.53118572    0.09338655       6
Ni     1.77944090    1.86601855    0.02109814       7
Cr     1.85938122   -1.85702245    0.09500286       8
Co    -0.02284026    1.92678289   -1.80939917       9
Cr    -0.12312233   -1.90625672   -1.76054661      10
Co     1.73432712   -0.00194858    1.80512701      11
Co    -1.78148405    0.00202832   -1.75273964      12
Ni    -1.73630571    0.02713421    1.82825966      13
Ni     0.00963359    1.78102941    1.81602837      14
Co     0.02021859   -1.78186225    1.78610678      15
Ni    -1.71566328    1.77005127    0.00847477      16
Co    -1.70428253   -1.74680055    0.03752930      17
Ni     0.51129348   -0.04122590   -0.55590057      18
          18
Lattice="  24.8920   0.0000   0.0000   0.0000  24.8920   0.0000   0.0000   0.0000  24.8920 " ConfE="      -5944.6231" DelE="          0.3006"
Co     3.46208003    0.01844853    0.02109601       1
Co    -0.00435186    0.00805831   -3.46062493       2
Ni    -3.51452441    0.03049911    0.03256662       3
Cr    -0.00583576   -0.03074716    3.59627411       4
Co     0.01901838    3.64886702    0.07907849       5
Cr     0.01564019   -3.54715643    0.09396012       6
Ni     1.76755463    1.90179098    0.05073732       7
Cr     1.84991714   -1.90066740    0.13872602       8
Co    -0.04285952    1.94860863   -1.79515417       9
Cr    -0.19157505   -1.91491186   -1.74681496      10
Co     1.71567275   -0.00350004    1.78027672      11
Co    -1.74959598    0.01262588   -1.73117733      12
Ni    -1.71079479    0.02995410    1.80774906      13
Ni     0.00508677    1.79025729    1.81481290      14
Co     0.01792044   -1.79182348    1.78000748      15
Ni    -1.73273527    1.79588605    0.01896514      16
Co    -1.71254051   -1.75583593    0.03983475      17
Ni     0.84648375   -0.05724592   -0.84718723      18
