          18
Lattice="  24.8920   0.0000   0.0000   0.0000  24.8920   0.0000   0.0000   0.0000  24.8920 " ConfE="      -5922.7662" DelE="          0.0000"
Co    -0.00212287    0.04541998   -3.48957068       1
Cr     3.53570272    0.01721584    0.03698050       2
Cr     0.00341913    0.06463298    3.59611768       3
Ni    -3.55330803    0.00552037   -0.01010574       4
Co    -0.00773235   -3.49925236    0.03251535       5
Co    -0.00462880    3.54882153   -0.04175032       6
Co     0.02144147   -1.70835875   -1.76194564       7
Cr     0.12749418    1.69276928   -1.85078986       8
Co     1.79162840   -1.71756236    0.02370960       9
Ni     1.74215442    1.75913807   -0.01139767      10
Cr    -1.70990901   -0.13771231   -1.85222976      11
Co     1.81067079    0.04490269    1.84262960      12
Cr    -1.78635072    0.01075270    1.83121054      13
Co    -1.79924551   -1.73969838    0.02487015      14
Ni    -1.76178771    1.75343858   -0.07795362      15
Ni     0.00473047   -1.71826169    1.81848853      16
Ni    -0.02943555    1.78873171    1.78154732      17
Ni     0.00000000    0.00000000    0.00000000      18
          18
Lattice="  24.8920   0.0000   0.0000   0.0000  24.8920   0.0000   0.0000   0.0000  24.8920 " ConfE="      -5922.2482" DelE="          0.5180"
Co    -0.00303881    0.03221427   -3.43144877       1
Cr     3.47188878    0.04972892    0.01683397       2
Cr     0.00976009    0.06780478    3.59780358       3
Ni    -3.55166470    0.01416565   -0.02958146       4
Co    -0.00887639   -3.55162049    0.05372112       5
Co    -0.00956290    3.61870048   -0.02057240       6
Co    -0.04117596   -1.93692151   -1.79065329       7
Cr     0.11818693    2.02697267   -1.88675735       8
Co     1.80179345   -1.83881458    0.07039555       9
Ni     1.78738067    1.93613982    0.04621780      10
Cr    -1.64868024   -0.16543956   -1.80840414      11
Co     1.76922026    0.05498502    1.76893142      12
Cr    -1.69853046    0.01572610    1.72219517      13
Co    -1.73697364   -1.68711839    0.01783394      14
Ni    -1.68837730    1.72992896   -0.10042751      15
Ni     0.01056972   -1.71015519    1.80311249      16
Ni    -0.01608757    1.80651116    1.77236837      17
Ni     0.66239219    0.05417044   -0.78980793      18
          18
Lattice="  24.8920   0.0000   0.0000   0.0000  24.8920   0.0000   0.0000   0.0000  24.8920 " ConfE="      -5922.8589" DelE="         -0.0927"
Co    -0.04492325    0.01320168   -3.57596981       1
Cr     3.56409718    0.02305062   -0.06983392       2
Cr     0.01327767    0.06122795    3.60741468       3
Ni    -3.58667480    0.00661500   -0.00690613       4
Co    -0.01790231   -3.52695656    0.04407728       5
Co    -0.02700613    3.59342726   -0.01211441       6
Co    -0.03164387   -1.73557477   -1.73037940       7
Cr    -0.06214186    1.78190576   -1.80197195       8
Co     1.76431752   -1.72125248    0.03216811       9
Ni     1.69339673    1.78073594   -0.02076306      10
Cr    -1.66822865   -0.12413932   -1.78647179      11
Co     1.80724220    0.04842765    1.77488630      12
Cr    -1.75783256   -0.00423559    1.79062177      13
Co    -1.76255609   -1.67411200    0.03627163      14
Ni    -1.75668051    1.72368511   -0.03770941      15
Ni     0.01283783   -1.68328094    1.78712925      16
Ni    -0.03417055    1.75336487    1.75559925      17
Ni     1.66566049    0.02945310   -1.74669402      18
