          18
Lattice="  24.8920   0.0000   0.0000   0.0000  24.8920   0.0000   0.0000   0.0000  24.8920 " ConfE="      -5944.4139" DelE="          0.0000"
Cr    -3.45510768    0.05938907    0.02753911       1
Cr    -0.00596614    0.00271565    3.44574141       2
Cr     3.54808374   -0.02304284   -0.02234437       3
Cr     0.03728424    0.02549191   -3.61248301       4
Co     0.04515124   -3.56815661    0.00943601       5
Cr     0.06186181    3.49712690   -0.03620162       6
Ni    -1.72995831   -1.75256566   -0.01789840       7
Cr    -1.74946732    1.75938340    0.03342194       8
Cr    -0.02644418   -1.73224447    1.76448849       9
Cr     0.03880779    1.71442455    1.75389787      10
Co    -1.72456404    0.00721737   -1.82540640      11
Co     1.82866847   -0.01248966    1.75878190      12
Ni     1.79892955   -0.02890077   -1.82201257      13
Ni     0.03130593   -1.78213373   -1.81147465      14
Ni     0.03107332    1.76250754   -1.80975951      15
Co     1.81698744   -1.78715554    0.01234646      16
Ni     1.81736311    1.75359923   -0.02971199      17
Ni     0.00000000    0.00000000    0.00000000      18
          18
Lattice="  24.8920   0.0000   0.0000   0.0000  24.8920   0.0000   0.0000   0.0000  24.8920 " ConfE="      -5944.1353" DelE="          0.2786"
Cr    -3.39997983    0.03793979    0.04926580       1
Cr    -0.01171703   -0.00894234    3.36479586       2
Cr     3.56500998   -0.00760465   -0.01291977       3
Cr     0.03345690    0.03345157   -3.61377065       4
Co     0.04779233   -3.60463871    0.00341447       5
Cr     0.06877813    3.54094050   -0.04120184       6
Ni    -1.76632203   -1.88177934   -0.05024208       7
Cr    -1.81781020    1.88196736    0.02179247       8
Cr     0.02454081   -1.93047500    1.77300303       9
Cr     0.10895288    1.90066470    1.81687695      10
Co    -1.71626329    0.00036450   -1.75326641      11
Co     1.78072652   -0.01620182    1.75181051      12
Ni     1.77483818   -0.02920485   -1.78828673      13
Ni     0.02531639   -1.77189312   -1.78479675      14
Ni     0.00890032    1.73134396   -1.73671440      15
Co     1.76812551   -1.75848103    0.02860329      16
Ni     1.77866268    1.73365613   -0.00654318      17
Ni    -0.52722925    0.01832764    0.59091805      18
          18
Lattice="  24.8920   0.0000   0.0000   0.0000  24.8920   0.0000   0.0000   0.0000  24.8920 " ConfE="      -5944.7048" DelE="         -0.2909"
Cr    -3.50132764    0.08083833   -0.01890108       1
Cr     0.04570141    0.03151191    3.51350860       2
Cr     3.57342195    0.00365522   -0.03233460       3
Cr     0.04276557    0.02502571   -3.62626179       4
Co     0.05199363   -3.60397278   -0.00070509       5
Cr     0.07530147    3.53036849   -0.05255611       6
Ni    -1.68637899   -1.75111564   -0.03665404       7
Cr    -1.68496598    1.76606353   -0.04622169       8
Cr     0.09819754   -1.69824408    1.67850318       9
Cr     0.07860717    1.69768283    1.70235546      10
Co    -1.69728184    0.02272747   -1.76487469      11
Co     1.75210756   -0.00461021    1.72730328      12
Ni     1.79065464   -0.02986893   -1.81087224      13
Ni     0.03923331   -1.75893660   -1.79766774      14
Ni     0.04304478    1.74379658   -1.79640113      15
Co     1.76789052   -1.76046395    0.01390075      16
Ni     1.79200003    1.73469023   -0.03969946      17
Ni    -1.68871801   -0.00235086    1.69778646      18
