          18
Lattice="  24.8920   0.0000   0.0000   0.0000  24.8920   0.0000   0.0000   0.0000  24.8920 " ConfE="      -5943.6777" DelE="          0.0000"
Ni    -0.03819300    3.55168151   -0.06428061       1
Ni     3.50842348    0.00893211   -0.03707859       2
Cr    -0.00236901   -3.56135709   -0.04884586       3
Co    -0.02761235   -0.02322228    3.47317794       4
Cr    -0.04362778    0.02168212   -3.62624757       5
Cr    -3.60687058   -0.00730861   -0.06379835       6
Ni    -1.76245931   -1.77245023   -0.01620012       7
Ni    -1.80323839   -0.01161331    1.73037946       8
Ni     1.74430852    1.78786950   -0.05429855       9
Cr     1.66479134   -1.75836211    0.10648268      10
Co     1.68982618   -0.00407175    1.72642815      11
Ni    -1.79725903    0.03463046   -1.81713583      12
Cr    -0.05591310    1.79884149    1.74047130      13
Co     0.02933005    1.72858141   -1.86999292      14
Cr     1.70921718   -0.01986401   -1.84237764      15
Co    -1.77687305    1.74538707   -0.00939458      16
Cr    -0.03750362   -1.77544779   -1.84757380      17
Cr     0.00000000    0.00000000    0.00000000      18
          18
Lattice="  24.8920   0.0000   0.0000   0.0000  24.8920   0.0000   0.0000   0.0000  24.8920 " ConfE="      -5943.0274" DelE="          0.6503"
Ni    -0.03819991    3.56151618   -0.06448369       1
Ni     3.55366429    0.01730131   -0.04477839       2
Cr    -0.05078051   -3.53746311   -0.06672693       3
Co    -0.01777314   -0.01353623    3.40457451       4
Cr    -0.04842047    0.01467380   -3.60255673       5
Cr    -3.68033296    0.01019314   -0.07719624       6
Ni    -1.88398424   -1.76662055   -0.06043256       7
Ni    -1.90230767    0.00541402    1.74084611       8
Ni     1.70793320    1.73067170   -0.03177244       9
Cr     1.86688343   -1.82016336    0.05749492      10
Co     1.88742528    0.11091316    1.79595294      11
Ni    -1.79953252    0.02293029   -1.78702400      12
Cr    -0.09761877    1.76757193    1.68573386      13
Co     0.03902172    1.65393571   -1.81866274      14
Cr     1.65519130   -0.05329949   -1.75839931      15
Co    -1.74346451    1.70780493    0.01934122      16
Cr    -0.06277612   -1.76744818   -1.81889291      17
Cr     0.10064180   -0.73951289    0.75517302      18
          18
Lattice="  24.8920   0.0000   0.0000   0.0000  24.8920   0.0000   0.0000   0.0000  24.8920 " ConfE="      -5943.5217" DelE="          0.1560"
Ni    -0.03685996    3.55819337   -0.06916850       1
Ni     3.53422207    0.01796357   -0.05542751       2
Cr     0.00599648   -3.60721559   -0.09202833       3
Co    -0.03650334    0.00535640    3.53715531       4
Cr    -0.05758710    0.03155464   -3.63999751       5
Cr    -3.62228017    0.00210176   -0.07202729       6
Ni    -1.76837468   -1.74212764   -0.05333324       7
Ni    -1.81271678   -0.00148988    1.71788945       8
Ni     1.71839493    1.75881539   -0.07169897       9
Cr     1.68026241   -1.69446695   -0.06123100      10
Co     1.67389945    0.02415917    1.68637400      11
Ni    -1.78286077    0.04602093   -1.80540838      12
Cr    -0.06235627    1.69940950    1.67173903      13
Co     0.03922448    1.70931882   -1.86825697      14
Cr     1.67857234    0.01544122   -1.84950564      15
Co    -1.74000641    1.72928048    0.00817901      16
Cr    -0.04086235   -1.71839804   -1.80246822      17
Cr     0.02396315   -1.67935664    1.69090559      18
