          18
Lattice="  24.8920   0.0000   0.0000   0.0000  24.8920   0.0000   0.0000   0.0000  24.8920 " ConfE="      -5925.2749" DelE="          0.0000"
Ni    -0.01663190    3.48687574   -0.02125660       1
Co     3.48799145   -0.00002325   -0.01218724       2
Co    -0.02438499   -3.63699871   -0.00639234       3
Ni    -3.58116409   -0.02630392   -0.00773977       4
Cr    -0.00169032    0.05263926    3.53557912       5
Ni    -0.01825267   -0.00420866   -3.53948176       6
Cr     0.09722076    1.72973342    1.67191722       7
Co     0.00706121    1.70932089   -1.73250802       8
Co     1.78584895    0.00928390    1.70544072       9
Cr     1.73446923    0.05351409   -1.68529111      10
Ni    -1.82883866    1.75053309   -0.01144082      11
Ni     1.75589808   -1.84824416   -0.00558988      12
Co    -1.79748480   -1.81095259    0.03674161      13
Ni    -1.79114320   -0.00030840    1.79984867      14
Co    -1.80769462   -0.03666487   -1.78042354      15
Ni     0.00614709   -1.78460264    1.79591336      16
Cr    -0.10562171   -1.79908211   -1.71128877      17
Cr     0.00000000    0.00000000    0.00000000      18
          18
Lattice="  24.8920   0.0000   0.0000   0.0000  24.8920   0.0000   0.0000   0.0000  24.8920 " ConfE="      -5924.6622" DelE="          0.6126"
Ni    -0.01372986    3.45128318   -0.01898077       1
Co     3.43992957    0.01834477   -0.01302433       2
Co    -0.01568143   -3.62972277    0.00299140       3
Ni    -3.57413850   -0.00994012   -0.00426236       4
Cr    -0.01991633   -0.00916076    3.61815396       5
Ni    -0.01856298   -0.00404165   -3.58895801       6
Cr    -0.01622800    1.80961489    1.86978327       7
Co    -0.06336508    1.78068636   -1.87112678       8
Co     1.80054267   -0.02308597    1.81241733       9
Cr     1.79119968   -0.02799467   -1.85955389      10
Ni    -1.77679402    1.73941410   -0.00428117      11
Ni     1.73100519   -1.79006490   -0.00900418      12
Co    -1.74463547   -1.75704600    0.04342401      13
Ni    -1.73990852    0.01515293    1.79126990      14
Co    -1.73824102   -0.01813970   -1.74777796      15
Ni     0.02265945   -1.73608992    1.78158579      16
Cr    -0.11906705   -1.66289150   -1.62763299      17
Cr     0.65197321    0.68993262   -0.02062767      18
          18
Lattice="  24.8920   0.0000   0.0000   0.0000  24.8920   0.0000   0.0000   0.0000  24.8920 " ConfE="      -5925.5563" DelE="         -0.2814"
Ni    -0.06080262    3.53663539   -0.00875021       1
Co     3.53696499   -0.03118945   -0.01509372       2
Co    -0.02579891   -3.66026799   -0.00416993       3
Ni    -3.58763081   -0.03146177   -0.01119178       4
Cr    -0.01175706    0.02032903    3.56062138       5
Ni    -0.03019319   -0.00820087   -3.57120137       6
Cr    -0.00081074    1.66040126    1.69123095       7
Co    -0.02551453    1.69568306   -1.73297136       8
Co     1.75346429   -0.00239080    1.69616439       9
Cr     1.66871386   -0.00032009   -1.68566948      10
Ni    -1.78765619    1.72220306   -0.00807284      11
Ni     1.71805258   -1.80619300   -0.00952506      12
Co    -1.78934408   -1.81283294    0.03940823      13
Ni    -1.78115697   -0.02941802    1.77974427      14
Co    -1.77643016   -0.05167418   -1.75853463      15
Ni    -0.00705388   -1.77419029    1.77998975      16
Cr    -0.15339907   -1.71077198   -1.62953568      17
Cr     1.69505636    1.76491691   -0.02079540      18
