          18
Lattice="  24.8920   0.0000   0.0000   0.0000  24.8920   0.0000   0.0000   0.0000  24.8920 " ConfE="      -5937.8529" DelE="          0.0000"
Co    -0.02109077   -0.04488837   -3.54816962       1
Cr    -0.00701232   -3.50458258    0.02616191       2
Cr    -0.02054285    3.58985375   -0.00485331       3
Cr    -0.00722267    0.02377040    3.54075551       4
Co     3.57545498    0.02212125    0.03942279       5
Co    -3.56704509    0.04649557    0.01762090       6
Ni    -1.75699413   -0.03428275   -1.76315970       7
Ni    -1.76399251   -1.76963344   -0.01218382       8
Co     1.76567602   -0.05391584   -1.74421838       9
Cr     1.73051482   -1.74613116   -0.09506542      10
Ni     0.01435874    1.78237435   -1.75053776      11
Ni     1.78627006    1.80920893   -0.00618357      12
Ni     1.77880251    0.02486124    1.76755105      13
Co     0.01549530   -1.73312225    1.81215732      14
Cr     0.02037687    1.79520440    1.79084222      15
Cr    -1.82535712    1.76907728   -0.01881146      16
Cr    -1.83850815    0.00333166    1.75060930      17
Ni     0.00000000    0.00000000    0.00000000      18
          18
Lattice="  24.8920   0.0000   0.0000   0.0000  24.8920   0.0000   0.0000   0.0000  24.8920 " ConfE="      -5937.2426" DelE="          0.6103"
Co    -0.02115570   -0.04041000   -3.52485702       1
Cr    -0.00703174   -3.45085817    0.01938348       2
Cr    -0.01350058    3.60284525   -0.03042924       3
Cr     0.01712647    0.02498769    3.55956670       4
Co     3.62314857    0.04505578    0.04380137       5
Co    -3.62236424    0.05339738    0.03371373       6
Ni    -1.89489386   -0.00306556   -1.78374765       7
Ni    -1.95561864   -1.81987509    0.03136011       8
Co     1.91314881    0.02422976   -1.79692743       9
Cr     1.95168908   -1.78663456    0.02540355      10
Ni     0.00960738    1.68349696   -1.69274921      11
Ni     1.79839689    1.79668834   -0.00431290      12
Ni     1.77707132    0.02991376    1.74770198      13
Co     0.02008670   -1.71679642    1.75358917      14
Cr     0.00560351    1.72812339    1.71215252      15
Cr    -1.79836907    1.71586749   -0.00304750      16
Cr    -1.77584511   -0.02697148    1.67277770      17
Ni     0.00677885   -0.74686437   -0.63321704      18
          18
Lattice="  24.8920   0.0000   0.0000   0.0000  24.8920   0.0000   0.0000   0.0000  24.8920 " ConfE="      -5937.8874" DelE="         -0.0344"
Co    -0.00324967   -0.00208075   -3.57355144       1
Cr    -0.02664150   -3.57452119    0.06605091       2
Cr    -0.01577578    3.61696452   -0.01129516       3
Cr     0.00359967    0.02817325    3.55759021       4
Co     3.61058464    0.04025214    0.04912270       5
Co    -3.60497522    0.05213632    0.02433399       6
Ni    -1.76675275   -0.01044922   -1.71582067       7
Ni    -1.78516069   -1.75893211    0.01484349       8
Co     1.78531896   -0.01738660   -1.69833959       9
Cr     1.76726519   -1.70586422   -0.02570355      10
Ni     0.01106761    1.73182894   -1.69652268      11
Ni     1.77045848    1.80099930    0.00604457      12
Ni     1.75025851    0.04082932    1.73906325      13
Co     0.01597920   -1.69734799    1.73495245      14
Cr    -0.00047032    1.76492533    1.74861933      15
Cr    -1.78567532    1.73933574    0.01729089      16
Cr    -1.79605124    0.00718284    1.72380881      17
Ni     0.00423778   -1.74348961   -1.72112114      18
