          18
Lattice="  24.8920   0.0000   0.0000   0.0000  24.8920   0.0000   0.0000   0.0000  24.8920 " ConfE="      -5949.7325" DelE="          0.0000"
Cr    -0.02494577    0.05064960    3.48835685       1
Cr     0.00980665    3.49054735    0.02826997       2
Cr    -0.03560181   -0.01296373   -3.53827440       3
Ni    -0.01986215   -3.60290891    0.02142625       4
Cr    -3.54107766   -0.02335180    0.07478354       5
Ni     3.54975204   -0.01169192    0.03848494       6
Co    -1.72519372    0.00864431    1.81025297       7
Ni     1.73635631    0.01302883    1.79219539       8
Ni    -1.75180519    1.74266805    0.02212667       9
Ni     1.74542494    1.75045768    0.03253840      10
Co     0.00067586   -1.82668693    1.81614887      11
Co    -0.02245847    1.74232512   -1.81886862      12
Ni    -0.00928364   -1.80067410   -1.75882484      13
Ni    -1.77679663   -1.81532785    0.03485056      14
Cr     1.74598057   -1.79772847    0.03355047      15
Cr    -1.81033546   -0.03799502   -1.75536035      16
Cr     1.80788211   -0.02652333   -1.79070599      17
Cr     0.00000000    0.00000000    0.00000000      18
          18
Lattice="  24.8920   0.0000   0.0000   0.0000  24.8920   0.0000   0.0000   0.0000  24.8920 " ConfE="      -5948.9732" DelE="          0.7593"
Cr     0.00211139   -0.01993266    3.51703008       1
Cr     0.01104151    3.47429556    0.01789699       2
Cr    -0.01587782    0.00234436   -3.53478498       3
Ni    -0.01551631   -3.58693381    0.04150066       4
Cr    -3.62956296   -0.04368476    0.05477885       5
Ni     3.63081199   -0.02963314    0.01882633       6
Co    -1.86858974   -0.06388157    1.81825271       7
Ni     1.92755905   -0.08563034    1.82657446       8
Ni    -1.89549372    1.74879184   -0.02257846       9
Ni     1.90331378    1.75119982   -0.01146868      10
Co     0.01327171   -1.73706732    1.80263426      11
Co    -0.01524417    1.69576957   -1.68876117      12
Ni    -0.01083619   -1.75249814   -1.71262191      13
Ni    -1.76159272   -1.77021639    0.04383520      14
Cr     1.69923574   -1.72072541    0.05317012      15
Cr    -1.73299636   -0.01651303   -1.68569924      16
Cr     1.71051431   -0.02235299   -1.66718318      17
Cr     0.01055877    0.90265479    1.01167530      18
          18
Lattice="  24.8920   0.0000   0.0000   0.0000  24.8920   0.0000   0.0000   0.0000  24.8920 " ConfE="      -5949.8902" DelE="         -0.1576"
Cr    -0.00888685   -0.03278494    3.59302594       1
Cr     0.00849577    3.52536733    0.00226823       2
Cr    -0.02665964   -0.00612132   -3.55630233       3
Ni    -0.02568844   -3.60421688    0.02386027       4
Cr    -3.56623282   -0.03036209    0.06147654       5
Ni     3.56708759   -0.01725435    0.02826898       6
Co    -1.74251065   -0.02481081    1.79554519       7
Ni     1.73571233   -0.02230454    1.77090611       8
Ni    -1.75269637    1.70350072   -0.01627861       9
Ni     1.72988876    1.70698408    0.00830769      10
Co     0.00219117   -1.78944242    1.81055010      11
Co    -0.02371214    1.70318106   -1.78479122      12
Ni    -0.00558597   -1.75789279   -1.72627633      13
Ni    -1.75893935   -1.78476473    0.03105171      14
Cr     1.72523920   -1.77378090    0.04028547      15
Cr    -1.77247005   -0.03854031   -1.75413102      16
Cr     1.77106657   -0.03660202   -1.77118569      17
Cr    -0.06464834    1.68892712    1.79018766      18
