          18
Lattice="  24.8920   0.0000   0.0000   0.0000  24.8920   0.0000   0.0000   0.0000  24.8920 " ConfE="      -5942.6767" DelE="          0.0000"
Co     0.06006698   -3.45889521   -0.02893431       1
Ni     0.11646419    0.00859610   -3.47144301       2
Co     0.12306238    3.59109898    0.06314066       3
Co     0.11980009    0.06631451    3.63186748       4
Cr    -3.43542578    0.06114071    0.01894097       5
Cr     3.77034074    0.03154004   -0.02988014       6
Co    -1.66129930   -1.69786469   -0.00695516       7
Ni     1.83171975   -1.71177069   -0.00743864       8
Co    -1.65345079    0.00266692   -1.72461967       9
Ni     1.86115698    0.00861474   -1.73036197      10
Ni     0.10560998   -1.72280410    1.83340910      11
Ni     0.09884142    1.83425553   -1.71216497      12
Ni     0.08956716    1.80241598    1.81435022      13
Ni    -1.66460338    0.04937856    1.84526563      14
Ni     1.89051709    0.05093944    1.79910882      15
Cr    -1.71478166    1.76723227    0.02041757      16
Ni     1.87786870    1.78700376    0.04391220      17
Cr     0.00000000    0.00000000    0.00000000      18
          18
Lattice="  24.8920   0.0000   0.0000   0.0000  24.8920   0.0000   0.0000   0.0000  24.8920 " ConfE="      -5942.1438" DelE="          0.5329"
Co     0.05980637   -3.40211098   -0.03579807       1
Ni     0.10822648   -0.02155273   -3.39848233       2
Co     0.12448594    3.59470180    0.05198100       3
Co     0.11157140    0.05823421    3.62652442       4
Cr    -3.54174407    0.10320223    0.02502827       5
Cr     3.83538631    0.04716917   -0.00471732       6
Co    -1.86545782   -1.77618412    0.03569604       7
Ni     1.95827985   -1.72338423    0.03528654       8
Co    -1.82159546    0.02983231   -1.77749549       9
Ni     1.96307722    0.02361172   -1.72832634      10
Ni     0.11957222   -1.70740170    1.78240537      11
Ni     0.08777576    1.76631537   -1.66800184      12
Ni     0.09680779    1.75522280    1.75909171      13
Ni    -1.62699918    0.01713827    1.72987474      14
Ni     1.91221257    0.04558420    1.79368336      15
Cr    -1.70875357    1.70466411    0.00892664      16
Ni     1.88918076    1.76276478    0.04082552      17
Cr    -0.04675629   -0.67126890   -0.61434613      18
          18
Lattice="  24.8920   0.0000   0.0000   0.0000  24.8920   0.0000   0.0000   0.0000  24.8920 " ConfE="      -5943.2758" DelE="         -0.5991"
Co     0.09150765   -3.51035668    0.02959382       1
Ni     0.11898076    0.04019490   -3.50222642       2
Co     0.12388771    3.61417112    0.06289427       3
Co     0.11655406    0.07012200    3.64873664       4
Cr    -3.48125475    0.07593279    0.02271131       5
Cr     3.77368421    0.03666823   -0.02161923       6
Co    -1.66075898   -1.68302447    0.01174654       7
Ni     1.84775679   -1.68438970    0.02634000       8
Co    -1.64797144    0.02483751   -1.67899489       9
Ni     1.86345034    0.02870877   -1.70827338      10
Ni     0.11140477   -1.69887639    1.79227549      11
Ni     0.09255240    1.78806386   -1.66652037      12
Ni     0.09258364    1.78577374    1.78863835      13
Ni    -1.63965566    0.05367958    1.80106249      14
Ni     1.90320709    0.06527626    1.81744593      15
Cr    -1.71143415    1.72883534    0.02712749      16
Ni     1.88080969    1.78792345    0.05732464      17
Cr     0.06307123   -1.77492754   -1.72363510      18
