          18
Lattice="  24.8920   0.0000   0.0000   0.0000  24.8920   0.0000   0.0000   0.0000  24.8920 " ConfE="      -5939.7178" DelE="          0.0000"
Co    -0.06936086   -3.49955802   -0.00828458       1
Co    -0.08616254   -0.03066460   -3.49139386       2
Ni    -0.05888724    3.55834940    0.03764105       3
Co    -0.06664083    0.03284799    3.61167251       4
Cr    -3.68141675    0.02475830    0.02314583       5
Co     3.45924819    0.02269947    0.07568986       6
Ni    -1.80441449   -1.74751757    0.02689163       7
Ni     1.70183374   -1.76032908    0.00808285       8
Co    -1.81455138   -0.03660737   -1.73591484       9
Cr     1.63437923   -0.03881788   -1.73825178      10
Ni    -0.05436378   -1.76176423    1.84391939      11
Ni    -0.06979316    1.79607075   -1.74450572      12
Ni    -0.06335779    1.77252838    1.80379195      13
Cr    -1.82311979    0.00657999    1.81422103      14
Cr     1.71352590   -0.04609175    1.86364423      15
Cr    -1.87083217    1.75980497    0.02379006      16
Co     1.70067873    1.73002673    0.03208184      17
Cr     0.00000000    0.00000000    0.00000000      18
          18
Lattice="  24.8920   0.0000   0.0000   0.0000  24.8920   0.0000   0.0000   0.0000  24.8920 " ConfE="      -5939.3094" DelE="          0.4083"
Co    -0.06328971   -3.45456514   -0.02469404       1
Co    -0.10902951   -0.03725634   -3.49218463       2
Ni    -0.05740304    3.54320845    0.03081212       3
Co    -0.05412148    0.02364937    3.61233394       4
Cr    -3.77179771    0.04044707    0.04808134       5
Co     3.56682463    0.03377292    0.09979773       6
Ni    -1.96081441   -1.76233720    0.07269771       7
Ni     1.85451840   -1.78437865    0.08148203       8
Co    -1.97272123   -0.01984697   -1.76513963       9
Cr     1.77940738    0.03641228   -1.72560364      10
Ni    -0.04068918   -1.73253993    1.75481616      11
Ni    -0.08514353    1.71649579   -1.72118287      12
Ni    -0.06005470    1.74061494    1.76788936      13
Cr    -1.73135009   -0.00329262    1.74282967      14
Cr     1.65886445   -0.03452038    1.74992788      15
Cr    -1.80770281    1.64180698    0.00077475      16
Co     1.67647692    1.63130698    0.02469981      17
Cr    -0.03354237   -0.90184977   -0.95555425      18
          18
Lattice="  24.8920   0.0000   0.0000   0.0000  24.8920   0.0000   0.0000   0.0000  24.8920 " ConfE="      -5940.1344" DelE="         -0.4166"
Co    -0.06384999   -3.52834079    0.03466864       1
Co    -0.10043905    0.00340914   -3.56214632       2
Ni    -0.05654117    3.56242342    0.03772949       3
Co    -0.06202915    0.03791250    3.63747046       4
Cr    -3.68590053    0.03519733    0.03647462       5
Co     3.51253823    0.02447236    0.09236128       6
Ni    -1.80897730   -1.72658210    0.07085276       7
Ni     1.69501899   -1.72099262    0.04548274       8
Co    -1.82555328   -0.01365265   -1.71547396       9
Cr     1.62245021   -0.00293714   -1.67148808      10
Ni    -0.05289262   -1.72164945    1.81502549      11
Ni    -0.08270014    1.74583673   -1.71550769      12
Ni    -0.06105047    1.74853653    1.77797337      13
Cr    -1.78461453    0.02906423    1.80083916      14
Cr     1.69503924   -0.03276562    1.84548436      15
Cr    -1.85565679    1.74265324    0.04809015      16
Co     1.67800966    1.65873359    0.02916611      17
Cr    -0.09257175   -1.67077232   -1.73114347      18
