          18
Lattice="  24.8920   0.0000   0.0000   0.0000  24.8920   0.0000   0.0000   0.0000  24.8920 " ConfE="      -5948.0713" DelE="          0.0000"
Ni    -0.06141349    0.00300384   -3.51033508       1
Ni    -3.67102659    0.00511811   -0.00514747       2
Ni    -0.07012750   -0.02726687    3.59249279       3
Co     3.40141695   -0.00782410   -0.01676328       4
Cr    -0.05787504   -3.54450583    0.04764972       5
Co    -0.13820913    3.54790623    0.04464459       6
Ni    -0.09554525   -1.75990530   -1.76976824       7
Ni    -0.11144677    1.75650642   -1.73642945       8
Co     1.68777837   -1.75512772   -0.03167594       9
Co     1.66031863    1.76210361    0.02896734      10
Ni    -1.86853119   -1.76906503    0.02492186      11
Cr    -1.91204702   -0.02763866   -1.79444964      12
Co    -0.10448665   -1.74339998    1.78221379      13
Cr    -0.09391208    1.74917275    1.80200327      14
Cr    -1.88347713    1.76094605    0.08510843      15
Cr     1.76727286   -0.05181665    1.80967958      16
Cr    -1.93008591    0.00689911    1.84538594      17
Cr     0.00000000    0.00000000    0.00000000      18
          18
Lattice="  24.8920   0.0000   0.0000   0.0000  24.8920   0.0000   0.0000   0.0000  24.8920 " ConfE="      -5947.3624" DelE="          0.7089"
Ni    -0.05799421    0.01016199   -3.43536571       1
Ni    -3.68249070    0.00139860   -0.02170245       2
Ni    -0.07596587   -0.02767896    3.59749940       3
Co     3.36513293   -0.00274560    0.00314985       4
Cr    -0.09778913   -3.64038730    0.07683197       5
Co    -0.13743796    3.60881200    0.04626101       6
Ni    -0.14069577   -1.88418847   -1.76999836       7
Ni    -0.13651350    1.89464363   -1.76256281       8
Co     1.70158791   -1.91521967    0.03839949       9
Co     1.69877198    1.91437214    0.05314668      10
Ni    -1.84798959   -1.77426761    0.00914233      11
Cr    -1.85044480   -0.01604331   -1.72668587      12
Co    -0.09544889   -1.69617583    1.72383748      13
Cr    -0.06318718    1.63549634    1.66766547      14
Cr    -1.81667147    1.71155063    0.03383440      15
Cr     1.71135350   -0.05178214    1.75549395      16
Cr    -1.86230073   -0.00802349    1.74655398      17
Cr     0.79269865    0.00448755   -0.75193898      18
          18
Lattice="  24.8920   0.0000   0.0000   0.0000  24.8920   0.0000   0.0000   0.0000  24.8920 " ConfE="      -5948.0603" DelE="          0.0110"
Ni    -0.09940791    0.00750012   -3.51384113       1
Ni    -3.68562704   -0.00062185   -0.01003510       2
Ni    -0.07877890   -0.02863514    3.58950901       3
Co     3.46691113    0.00164278    0.03609260       4
Cr    -0.07360200   -3.61023178    0.05753500       5
Co    -0.14284643    3.59583875    0.05212462       6
Ni    -0.12355968   -1.78941631   -1.74281227       7
Ni    -0.13876663    1.79959650   -1.70192299       8
Co     1.66290926   -1.77903965    0.01222636       9
Co     1.64324896    1.79581673    0.06219228      10
Ni    -1.87095885   -1.79854660    0.02031780      11
Cr    -1.79434939    0.00346726   -1.64944804      12
Co    -0.11631645   -1.73226174    1.75236303      13
Cr    -0.09837912    1.74138892    1.77353850      14
Cr    -1.88626865    1.77824169    0.07373565      15
Cr     1.62309790   -0.04027095    1.67117139      16
Cr    -1.80882685    0.00178660    1.69590547      17
Cr     1.53551956    0.03520217   -1.53277846      18
