          19
Lattice="  24.8920   0.0000   0.0000   0.0000  24.8920   0.0000   0.0000   0.0000  24.8920 " ConfE="      -5943.6549" DelE="          0.0000"
Ni     0.01033084    2.57112476   -2.53407345       1
Ni     3.59109020   -0.07424674    0.08032288       2
Ni     0.02030829   -0.00838896   -3.38456173       3
Co     0.03927560   -3.65361248    0.08570818       4
Co     0.06009607    3.41416973    0.02637649       5
Co     0.02626097   -0.12394671    3.59290874       6
Cr    -3.53548700   -0.07718598    0.07250811       7
Ni     1.80769221   -0.04036585   -1.68386553       8
Ni    -1.75271457   -1.89181712    0.07023043       9
Ni    -1.77474791   -0.10567445    1.83800001      10
Co    -1.72739129    1.69453256    0.04830716      11
Co     1.79597923    1.71313294    0.05981800      12
Co    -1.74447072   -0.05274457   -1.66186347      13
Cr     0.03011475   -1.80638624    1.80027130      14
Cr     0.08279245    1.62328633    1.82666170      15
Co     1.79337271   -1.85436590    0.08570695      16
Co     0.04424291   -1.89230055   -1.67288452      17
Co     1.80051668   -0.10513092    1.83611618      18
Cr     0.00000000    0.00000000    0.00000000      19
          19
Lattice="  24.8920   0.0000   0.0000   0.0000  24.8920   0.0000   0.0000   0.0000  24.8920 " ConfE="      -5942.8743" DelE="          0.7805"
Ni     0.01800987    2.64968776   -2.62129971       1
Ni     3.64048743   -0.08626773    0.08415538       2
Ni     0.02374221   -0.00972867   -3.35509790       3
Co     0.03669849   -3.64513607    0.07408885       4
Co     0.05412362    3.36752539    0.02962362       5
Co     0.02279401   -0.12153701    3.60198492       6
Cr    -3.63032613   -0.11133825    0.10045055       7
Ni     1.92521794   -0.08124174   -1.71487542       8
Ni    -1.75144577   -1.85362289    0.06211316       9
Ni    -1.77371218   -0.10407310    1.79761158      10
Co    -1.88497041    1.69877329    0.09807102      11
Co     1.92599030    1.72520159    0.08250043      12
Co    -1.85391859   -0.08581828   -1.68200927      13
Cr     0.07332758   -1.68786641    1.69492344      14
Cr     0.07144547    1.53116886    1.76008009      15
Co     1.77878577   -1.81608764    0.07308820      16
Co     0.04110775   -1.80184772   -1.62876552      17
Co     1.78273422   -0.07920944    1.79605082      18
Cr     0.00775468    0.79191144   -0.72545206      19
          19
Lattice="  24.8920   0.0000   0.0000   0.0000  24.8920   0.0000   0.0000   0.0000  24.8920 " ConfE="      -5943.9462" DelE="         -0.2914"
Ni     0.05102431    3.41329456   -3.40262700       1
Ni     3.61697971   -0.09550103    0.08943528       2
Ni     0.04147365   -0.12347876   -3.43552264       3
Co     0.03972675   -3.68535803    0.09239855       4
Co     0.06734069    3.48376446    0.07890636       5
Co     0.02445015   -0.13437712    3.61599070       6
Cr    -3.56695141   -0.09266678    0.06532383       7
Ni     1.78988221   -0.10508967   -1.62090166       8
Ni    -1.73664852   -1.88734757    0.07883246       9
Ni    -1.76241489   -0.13719436    1.81878341      10
Co    -1.72148388    1.65418585    0.08727502      11
Co     1.81422040    1.68781281    0.09428076      12
Co    -1.71571971   -0.08858096   -1.63549425      13
Cr     0.07639124   -1.74418009    1.73345362      14
Cr     0.09485245    1.45763345    1.63905948      15
Co     1.78761404   -1.87502855    0.10858608      16
Co     0.05250874   -1.88014585   -1.63053746      17
Co     1.79406389   -0.12726877    1.82971591      18
Cr     0.03479111    1.58310837   -1.52411445      19
