          18
Lattice="  24.8920   0.0000   0.0000   0.0000  24.8920   0.0000   0.0000   0.0000  24.8920 " ConfE="      -5938.1027" DelE="          0.0000"
Cr     3.47003217    0.03065752    0.00382901       1
Ni     0.01551570   -0.00866676    3.59528684       2
Cr    -3.57188691    0.01273752    0.01732569       3
Cr     0.02055833   -0.06383262   -3.55609855       4
Cr     0.02496364   -3.51603287    0.01816503       5
Cr    -0.00875396    3.54223509    0.04584957       6
Ni     1.76629574   -1.73731229    0.05037732       7
Co     1.78137566    1.77131288    0.02016298       8
Ni     0.06776777   -1.71936882    1.81057693       9
Ni     0.04383668    1.74868107    1.78087796      10
Ni     1.75082967   -0.01498753   -1.79986065      11
Ni    -1.80556476   -0.00737955    1.79044605      12
Ni    -1.77164738   -0.02436166   -1.77356180      13
Co     0.02612663   -1.82011291   -1.76766831      14
Ni    -0.00044438    1.74826872   -1.77539380      15
Ni    -1.77399524   -1.76893067    0.02001259      16
Ni    -1.76803082    1.75121445    0.02725639      17
Ni     0.00000000    0.00000000    0.00000000      18
          18
Lattice="  24.8920   0.0000   0.0000   0.0000  24.8920   0.0000   0.0000   0.0000  24.8920 " ConfE="      -5936.8904" DelE="          1.2124"
Cr     3.42966876   -0.00126770   -0.15018527       1
Ni     0.06470143    0.00222435    3.55681703       2
Cr    -3.55002160    0.01380159    0.04530085       3
Cr     0.01627266   -0.08020156   -3.59924431       4
Cr     0.01475860   -3.58198792    0.00757902       5
Cr    -0.01188190    3.61323946    0.01906244       6
Ni     1.77985400   -1.87676402   -0.00638548       7
Co     1.77268484    2.01477926   -0.10655805       8
Ni     0.05875743   -1.85603019    1.82941745       9
Ni     0.04249713    1.93693455    1.86944548      10
Ni     1.69454309   -0.03002878   -1.78572133      11
Ni    -1.69361956   -0.00704934    1.76551454      12
Ni    -1.70958298   -0.03472773   -1.73143928      13
Co     0.02605128   -1.83673826   -1.76111774      14
Ni     0.01157782    1.74339440   -1.78355948      15
Ni    -1.72150631   -1.76925186    0.02766121      16
Ni    -1.65049524    1.72165301    0.04197256      17
Ni     0.69294505    0.07389336    0.61834390      18
          18
Lattice="  24.8920   0.0000   0.0000   0.0000  24.8920   0.0000   0.0000   0.0000  24.8920 " ConfE="      -5937.6304" DelE="          0.4724"
Cr     3.52724871    0.02740340   -0.19042771       1
Ni     0.02482751   -0.00355364    3.62245683       2
Cr    -3.55158622    0.01826877    0.02271264       3
Cr     0.00819707   -0.07146314   -3.58600303       4
Cr     0.04565685   -3.49576437    0.02345254       5
Cr     0.01193973    3.53851182    0.04169736       6
Ni     1.78135169   -1.72083109    0.03229770       7
Co     1.73501277    1.84863940   -0.12950832       8
Ni     0.10199916   -1.68762346    1.81367149       9
Ni     0.11854722    1.73034441    1.78808611      10
Ni     1.73722227   -0.01644818   -1.84468808      11
Ni    -1.77436798    0.00021002    1.79183910      12
Ni    -1.76822480   -0.02198838   -1.78053324      13
Co     0.02897909   -1.82243540   -1.77971985      14
Ni    -0.01735258    1.75434660   -1.82568162      15
Ni    -1.75809662   -1.76060331    0.02055664      16
Ni    -1.73648836    1.75545801    0.03084730      17
Ni     0.01748099    0.00913628   -0.02457840      18
