          18
Lattice="  24.8920   0.0000   0.0000   0.0000  24.8920   0.0000   0.0000   0.0000  24.8920 " ConfE="      -5927.1014" DelE="          0.0000"
Co    -3.52999765   -0.02039473    0.00785158       1
Cr     0.09825667    3.53961586    0.03938116       2
Ni     0.04103458   -0.01154644    3.48091099       3
Cr     3.65734403   -0.04805175    0.00553870       4
Co     0.07425164   -3.64527619   -0.01169703       5
Cr     0.01293421   -0.01919323   -3.53465130       6
Co    -0.01564799    1.73502844    1.64689388       7
Cr    -1.74157269    0.01778086    1.65120753       8
Cr    -0.01262763    1.77409155   -1.68894665       9
Cr    -1.77206928   -0.00051449   -1.65467701      10
Ni     0.05394972   -1.81267611    1.72802895      11
Ni     1.84670786   -0.04134215    1.75521799      12
Ni     1.87895854    1.73985980    0.01100614      13
Ni    -1.72048213   -1.88778276   -0.00366045      14
Ni     1.82508317   -0.02481092   -1.74608504      15
Co     1.82293987   -1.81769011   -0.02619652      16
Co     0.04115670   -1.80205107   -1.78467375      17
Cr     0.00000000    0.00000000    0.00000000      18
          18
Lattice="  24.8920   0.0000   0.0000   0.0000  24.8920   0.0000   0.0000   0.0000  24.8920 " ConfE="      -5926.6073" DelE="          0.4941"
Co    -3.43882808   -0.01593442   -0.02025482       1
Cr     0.06755649    3.50291195    0.00362039       2
Ni     0.05992155   -0.02499868    3.55073265       3
Cr     3.61638660   -0.04174066    0.00639023       4
Co     0.06096323   -3.64704135   -0.00795966       5
Cr     0.13483742   -0.07819180   -3.63310551       6
Co     0.04567233    1.78300782    1.81826775       7
Cr    -1.77273587   -0.06976667    1.89644059       8
Cr     0.00562597    1.77629083   -1.87709430       9
Cr    -1.76400411   -0.08731073   -1.99200293      10
Ni     0.02496331   -1.74533820    1.69784364      11
Ni     1.80208635   -0.03144975    1.74412438      12
Ni     1.77635902    1.71717697    0.00529162      13
Ni    -1.70589242   -1.81297137   -0.02395667      14
Ni     1.77656162   -0.01817819   -1.73154944      15
Co     1.78792138   -1.79024348   -0.02323763      16
Co     0.02917510   -1.75063071   -1.76259159      17
Cr    -0.70771448    0.60729368    0.04804822      18
          18
Lattice="  24.8920   0.0000   0.0000   0.0000  24.8920   0.0000   0.0000   0.0000  24.8920 " ConfE="      -5927.0560" DelE="          0.0454"
Co    -3.57489961   -0.02294872   -0.00129974       1
Cr     0.11605695    3.58125152    0.04393234       2
Ni     0.06242764   -0.02757233    3.52125372       3
Cr     3.64785871   -0.05513315    0.00846917       4
Co     0.07904955   -3.66992533   -0.00981644       5
Cr     0.02872664   -0.03376977   -3.55834846       6
Co     0.01823186    1.70386669    1.68075791       7
Cr    -1.70034358   -0.04300540    1.69803734       8
Cr     0.03985773    1.72878723   -1.70718758       9
Cr    -1.68907380   -0.05700858   -1.66475547      10
Ni     0.06687372   -1.79355117    1.70055976      11
Ni     1.84073546   -0.05917775    1.73964766      12
Ni     1.82995158    1.71725192    0.01057967      13
Ni    -1.69769573   -1.83473018    0.00127443      14
Ni     1.80299770   -0.04081190   -1.72133731      15
Co     1.84062650   -1.83847792   -0.02573277      16
Co     0.05221380   -1.78489727   -1.76392605      17
Cr    -1.67389877    1.66832253    0.06419069      18
