          18
Lattice="  24.8920   0.0000   0.0000   0.0000  24.8920   0.0000   0.0000   0.0000  24.8920 " ConfE="      -5940.3149" DelE="          0.0000"
Ni    -3.47852441   -0.00711551   -0.01730802       1
Ni     0.03593128   -3.55738662   -0.05290507       2
Ni     3.61978840    0.02523029   -0.03887067       3
Cr     0.02140271   -0.02135786    3.52408063       4
Co     0.04173976    3.52012321   -0.07269623       5
Co     0.07171079    0.03768838   -3.59308395       6
Ni     0.01213943   -1.75569091    1.74906199       7
Cr    -1.69201693    1.74865626   -0.04836556       8
Co     0.06398250    1.70938119    1.72807664       9
Co    -1.73410568   -1.73113553   -0.02471284      10
Co    -1.72669673    0.02455654   -1.86410956      11
Cr     0.05491273    1.83254175   -1.77305369      12
Co     1.81576543    1.74648301   -0.06431962      13
Co     0.06226483   -1.74643775   -1.83136354      14
Cr     1.81682788    0.00500558   -1.82209130      15
Cr     1.86245719   -0.01230024    1.77269105      16
Cr     1.77374169   -1.73624425   -0.07372994      17
Ni     0.00000000    0.00000000    0.00000000      18
          18
Lattice="  24.8920   0.0000   0.0000   0.0000  24.8920   0.0000   0.0000   0.0000  24.8920 " ConfE="      -5939.6324" DelE="          0.6825"
Ni    -3.41114498   -0.02456931   -0.00274067       1
Ni     0.05826840   -3.63491587   -0.07484444       2
Ni     3.62370267    0.03444405   -0.03058401       3
Cr     0.00001926   -0.01928724    3.45814426       4
Co     0.04596361    3.57733628   -0.07319236       5
Co     0.06352231    0.03776054   -3.60003356       6
Ni     0.07101954   -1.90398065    1.74709421       7
Cr    -1.70193662    1.91793638   -0.11689314       8
Co     0.15357306    1.88554376    1.76417187       9
Co    -1.73185021   -1.91886020   -0.09436596      10
Co    -1.67267282    0.02419839   -1.78227089      11
Cr     0.04513778    1.81083991   -1.74226904      12
Co     1.78099001    1.74669664   -0.06625222      13
Co     0.07142627   -1.71966522   -1.77925550      14
Cr     1.72796538    0.01484492   -1.70492309      15
Cr     1.72867323    0.02344184    1.64929377      16
Cr     1.71070134   -1.71245329   -0.06100899      17
Ni    -0.87367094    0.02303924    0.85345217      18
          18
Lattice="  24.8920   0.0000   0.0000   0.0000  24.8920   0.0000   0.0000   0.0000  24.8920 " ConfE="      -5940.2778" DelE="          0.0371"
Ni    -3.52769005   -0.01261679   -0.05744632       1
Ni     0.04182335   -3.57597911   -0.06066002       2
Ni     3.64003854    0.02527273   -0.03581986       3
Cr     0.04084048   -0.02437607    3.56021967       4
Co     0.05419635    3.54058225   -0.08508600       5
Co     0.07751806    0.03578950   -3.62143793       6
Ni     0.03550135   -1.75487225    1.71317190       7
Cr    -1.61730054    1.68911728   -0.10074078       8
Co     0.08826426    1.66947427    1.64697823       9
Co    -1.68165079   -1.72171554   -0.08450144      10
Co    -1.67595000    0.03729341   -1.80801794      11
Cr     0.09262849    1.80756395   -1.77108284      12
Co     1.79043631    1.70635870   -0.08582704      13
Co     0.09941833   -1.69371550   -1.79425062      14
Cr     1.80237168    0.00850611   -1.78950230      15
Cr     1.80715079   -0.00547315    1.72757868      16
Cr     1.72594477   -1.67986147   -0.07147196      17
Ni    -1.73204775   -0.02501043    1.69224429      18
