          18
Lattice="  24.8920   0.0000   0.0000   0.0000  24.8920   0.0000   0.0000   0.0000  24.8920 " ConfE="      -5927.1015" DelE="          0.0000"
Cr    -0.06189466    0.00442427   -3.35944983       1
Co     3.45148509   -0.03259522   -0.01185644       2
Cr    -0.03169288   -0.02777077    3.66330047       3
Co    -3.67414328    0.03618482    0.09881523       4
Cr    -0.10013596   -3.61385751    0.07162817       5
Co    -0.05874518    3.56739762    0.10307116       6
Co    -0.06081042   -1.78362247   -1.65382546       7
Cr    -0.11083124    1.79296430   -1.63782752       8
Cr     1.72366255   -1.75071650   -0.00690314       9
Ni     1.72612609    1.75945708    0.05289901      10
Cr    -1.90831267    0.03281464   -1.69548123      11
Co     1.71460233   -0.04124262    1.83778524      12
Cr    -1.78336607   -0.00967954    1.83943874      13
Cr    -1.90740563   -1.78187941    0.09635930      14
Co    -1.84611393    1.77188584    0.11203528      15
Ni    -0.02975836   -1.82403478    1.84470871      16
Ni    -0.03300871    1.77909537    1.86337084      17
Cr     0.00000000    0.00000000    0.00000000      18
          18
Lattice="  24.8920   0.0000   0.0000   0.0000  24.8920   0.0000   0.0000   0.0000  24.8920 " ConfE="      -5926.5291" DelE="          0.5725"
Cr    -0.08663922    0.00157746   -3.40793265       1
Co     3.41546808   -0.01538607    0.00951618       2
Cr    -0.02726922   -0.01789777    3.63456825       3
Co    -3.65268389    0.03777895    0.09647553       4
Cr    -0.14485606   -3.71603882    0.08697026       5
Co    -0.05545046    3.64939235    0.12463827       6
Co    -0.14860953   -1.95972469   -1.68918748       7
Cr    -0.11896208    1.87995031   -1.61882836       8
Cr     1.71852774   -1.93049288    0.09833958       9
Ni     1.72571511    1.87294547    0.11075181      10
Cr    -1.83103627    0.04511184   -1.62480343      11
Co     1.67381848   -0.03942448    1.78650598      12
Cr    -1.62249777    0.00274201    1.67253975      13
Cr    -1.77524330   -1.73794009    0.07063226      14
Co    -1.78343001    1.76876047    0.10175904      15
Ni    -0.01066322   -1.85661588    1.83138769      16
Ni    -0.01417382    1.81504869    1.85755457      17
Cr     0.79030886   -0.12357819   -0.70991712      18
          18
Lattice="  24.8920   0.0000   0.0000   0.0000  24.8920   0.0000   0.0000   0.0000  24.8920 " ConfE="      -5926.8942" DelE="          0.2073"
Cr    -0.11228438   -0.01571487   -3.47170694       1
Co     3.50400844   -0.01219876    0.02993718       2
Cr    -0.03562057   -0.02152308    3.64035437       3
Co    -3.68590029    0.04162464    0.10292062       4
Cr    -0.11035647   -3.65670220    0.08571724       5
Co    -0.06107234    3.62475492    0.13544145       6
Co    -0.09779715   -1.83881756   -1.63042442       7
Cr    -0.14961972    1.84511259   -1.57291689       8
Cr     1.71528013   -1.78954568    0.07465537       9
Ni     1.70143141    1.79894315    0.11400935      10
Cr    -1.75570546    0.02788500   -1.56948675      11
Co     1.68216552   -0.05423810    1.77570664      12
Cr    -1.69563332    0.00414478    1.71819466      13
Cr    -1.88267424   -1.78102500    0.10727005      14
Co    -1.82096217    1.77070720    0.12751504      15
Ni    -0.03662397   -1.83108064    1.83105199      16
Ni    -0.03672835    1.79471824    1.87419053      17
Cr     1.38204495   -0.01284697   -1.42668159      18
