          18
Lattice="  24.8920   0.0000   0.0000   0.0000  24.8920   0.0000   0.0000   0.0000  24.8920 " ConfE="      -5943.2332" DelE="          0.0000"
Ni     0.07655281    3.47912621    0.00286200       1
Ni     3.62275277   -0.00367430    0.03575396       2
Ni    -3.49686638   -0.02846720    0.04528530       3
Ni     0.05261453   -3.55712631    0.04705907       4
Co     0.01321025   -0.03279636   -3.46272345       5
Cr     0.04011284    0.04052563    3.62725721       6
Ni     1.78824601    1.72948351    0.01110695       7
Ni     1.77260969   -0.00782212   -1.75358952       8
Ni    -1.72426078   -0.01316563    1.83453225       9
Co    -1.67210258    1.70624141    0.00136262      10
Cr    -1.68841438    0.02121923   -1.76428692      11
Ni     1.80934178   -1.77330159    0.02963529      12
Cr     0.06673899    1.69034959    1.86192214      13
Co     1.80673809   -0.00273056    1.83057846      14
Co     0.05029948   -1.75070101    1.86494727      15
Co     0.01221921   -1.81877452   -1.74761150      16
Co    -1.70499424   -1.78152853    0.05050161      17
Cr     0.00000000    0.00000000    0.00000000      18
          18
Lattice="  24.8920   0.0000   0.0000   0.0000  24.8920   0.0000   0.0000   0.0000  24.8920 " ConfE="      -5942.4239" DelE="          0.8092"
Ni     0.07324799    3.42972659    0.00613308       1
Ni     3.67441002   -0.01601795    0.05181872       2
Ni    -3.53569431   -0.03117036    0.06006720       3
Ni     0.04782043   -3.54591454    0.03569098       4
Co     0.03152808   -0.02890271   -3.45823766       5
Cr     0.03137280    0.05091471    3.61842037       6
Ni     1.87272431    1.72553350    0.03880841       7
Ni     1.89854880   -0.04500593   -1.77561927       8
Ni    -1.68903482    0.00038200    1.78723169       9
Co    -1.84954104    1.78247671    0.08603892      10
Cr    -1.89211885   -0.02205611   -1.82061969      11
Ni     1.78896145   -1.73668210    0.02638494      12
Cr     0.07659905    1.65413360    1.82820985      13
Co     1.76665100    0.01203606    1.80832739      14
Co     0.04796301   -1.72960837    1.84972835      15
Co     0.00648905   -1.74082434   -1.72180878      16
Co    -1.67538718   -1.72159368    0.01748104      17
Cr    -0.09966504    0.78755600   -0.90612069      18
          18
Lattice="  24.8920   0.0000   0.0000   0.0000  24.8920   0.0000   0.0000   0.0000  24.8920 " ConfE="      -5942.9619" DelE="          0.2712"
Ni     0.07476198    3.51725202    0.03466968       1
Ni     3.64233619   -0.01426935    0.04576873       2
Ni    -3.51215868   -0.02800547    0.05663802       3
Ni     0.05291004   -3.56116739    0.04208010       4
Co     0.02801951   -0.06467845   -3.53826856       5
Cr     0.03871940    0.04750295    3.63142407       6
Ni     1.77660018    1.69537807    0.03957963       7
Ni     1.77626364   -0.03919763   -1.72876873       8
Ni    -1.68890748   -0.01960836    1.80913493       9
Co    -1.66644520    1.69487438    0.03026570      10
Cr    -1.69510664   -0.03150005   -1.72742009      11
Ni     1.79898594   -1.77563708    0.04201108      12
Cr     0.07636221    1.64060377    1.82463622      13
Co     1.79439022   -0.00573898    1.83641076      14
Co     0.05929456   -1.74532698    1.86627635      15
Co    -0.00058581   -1.74939299   -1.71961811      16
Co    -1.67937413   -1.75480104    0.04322432      17
Cr    -0.02984836    1.63900197   -1.69128274      18
