          18
Lattice="  24.8920   0.0000   0.0000   0.0000  24.8920   0.0000   0.0000   0.0000  24.8920 " ConfE="      -5924.4224" DelE="          0.0000"
Ni    -0.07688347    3.42452187   -0.02490660       1
Cr    -3.53060034   -0.03768495   -0.12858965       2
Co    -0.03772592   -0.02498923    3.46492500       3
Cr    -0.03604797    0.00626935   -3.62868375       4
Co    -0.00398906   -3.60819131   -0.06950271       5
Co     3.49567604   -0.02428584   -0.02141223       6
Ni    -1.79588200   -0.01965273    1.67450614       7
Ni    -0.03936269    1.69103275   -1.78192320       8
Ni    -1.78148841   -1.86394056   -0.05313025       9
Co    -1.75130460   -0.05501106   -1.76665725      10
Cr    -0.03905363    1.67521508    1.75452472      11
Ni    -0.03210577   -1.84642706    1.73335286      12
Ni     1.73184651   -1.83087324   -0.04399585      13
Cr     1.79707090    1.72647867   -0.03732758      14
Cr     1.79658388   -0.03691425   -1.82286299      15
Cr    -0.02639754   -1.78707961   -1.81422923      16
Co     1.77119712   -0.04297702    1.73602409      17
Cr     0.00000000    0.00000000    0.00000000      18
          18
Lattice="  24.8920   0.0000   0.0000   0.0000  24.8920   0.0000   0.0000   0.0000  24.8920 " ConfE="      -5923.2420" DelE="          1.1803"
Ni    -0.05013128    3.38186996   -0.03655957       1
Cr    -3.53215840   -0.06543836   -0.10467524       2
Co    -0.03553138   -0.03720996    3.55839991       3
Cr    -0.03008437   -0.03202228   -3.73475530       4
Co     0.04435425   -3.54211143   -0.03214718       5
Co     3.43222611   -0.04722508   -0.02097465       6
Ni    -1.81900612   -0.12349551    1.83562296       7
Ni     0.03245350    1.70052294   -1.95101804       8
Ni    -1.70652921   -1.77470084   -0.05153558       9
Co    -1.72111965   -0.09485380   -1.88658152      10
Cr     0.01117608    1.61780840    1.86232805      11
Ni    -0.06061853   -1.84432461    1.86041348      12
Ni     0.97480286   -1.02910367   -0.09242572      13
Cr     1.73973069    1.61895074   -0.05010594      14
Cr     1.84264554    0.00417920   -2.00777962      15
Cr    -0.07680854   -1.85362133   -1.96411486      16
Co     1.78546678   -0.01115036    1.89138402      17
Cr    -0.95322375    0.93531151   -0.01273490      18
          18
Lattice="  24.8920   0.0000   0.0000   0.0000  24.8920   0.0000   0.0000   0.0000  24.8920 " ConfE="      -5924.4259" DelE="         -0.0036"
Ni    -0.03170573    3.49780483   -0.03761465       1
Cr    -3.55372244   -0.06278782   -0.11062780       2
Co    -0.03034763   -0.04258915    3.51059192       3
Cr    -0.03162789   -0.00035093   -3.65485262       4
Co    -0.00650792   -3.63512556   -0.07204432       5
Co     3.52266160   -0.02920801   -0.02675465       6
Ni    -1.75458387   -0.06708021    1.69307611       7
Ni    -0.00877246    1.67180011   -1.77680101       8
Ni    -1.75909760   -1.83242093   -0.05593706       9
Co    -1.71381197   -0.07520196   -1.78233706      10
Cr    -0.01159440    1.63278494    1.72029646      11
Ni    -0.02165715   -1.84732626    1.72076792      12
Ni     1.69277335   -1.80217626   -0.05541690      13
Cr     1.71201666    1.66313197   -0.01135992      14
Cr     1.76451139   -0.05068498   -1.79395211      15
Cr    -0.02835708   -1.75969554   -1.80579290      16
Co     1.72576264   -0.02243962    1.68882417      17
Cr    -1.73412486    1.69115115   -0.01910107      18
