          18
Lattice="  24.8920   0.0000   0.0000   0.0000  24.8920   0.0000   0.0000   0.0000  24.8920 " ConfE="      -5949.7201" DelE="          0.0000"
Co     0.05960023   -3.46822523   -0.03951629       1
Ni     0.00890046    0.00007928   -3.47870425       2
Cr     0.02916464    3.60248685    0.02933240       3
Co    -0.00537960    0.07411851    3.59857445       4
Co    -3.48829649    0.03476827    0.05517378       5
Co     3.60126752    0.02245261    0.04405921       6
Ni    -1.72445797   -1.76750064    0.00750041       7
Ni     1.78264499   -1.71043885    0.02024521       8
Co    -1.70192294   -0.00032128   -1.69781087       9
Co     1.73505229    0.05900963   -1.68392540      10
Co     0.01282492   -1.72509125    1.83743049      11
Cr     0.03656013    1.84055916   -1.74546318      12
Co     0.05438794    1.83798670    1.77148012      13
Cr    -1.68616345   -0.01299198    1.79155942      14
Ni     1.79892279    0.03632743    1.82583919      15
Co    -1.69855832    1.79177519    0.04962300      16
Cr     1.78221989    1.77952768    0.04623642      17
Cr     0.00000000    0.00000000    0.00000000      18
          18
Lattice="  24.8920   0.0000   0.0000   0.0000  24.8920   0.0000   0.0000   0.0000  24.8920 " ConfE="      -5949.0003" DelE="          0.7198"
Co     0.04315464   -3.42837299   -0.02063960       1
Ni     0.00004408    0.00389226   -3.45377760       2
Cr     0.02890744    3.57552214    0.02194979       3
Co     0.00135684    0.07000899    3.60196344       4
Co    -3.57380362    0.04311690    0.07719956       5
Co     3.68077852    0.02563139    0.04740709       6
Ni    -1.88246365   -1.77123611    0.06685765       7
Ni     1.92457922   -1.72176877    0.08701053       8
Co    -1.84576083    0.04354314   -1.71518209       9
Co     1.86956377    0.07120017   -1.70749692      10
Co    -0.00685885   -1.65676496    1.73167365      11
Cr     0.02142737    1.78626597   -1.70936853      12
Co     0.06741942    1.80804634    1.73750851      13
Cr    -1.62944455   -0.00722715    1.71349804      14
Ni     1.79493056    0.03432980    1.79370611      15
Co    -1.64719413    1.69085452    0.04642264      16
Cr     1.71696865    1.67100812    0.00866938      17
Cr     0.03392512   -1.01019368   -1.00013886      18
          18
Lattice="  24.8920   0.0000   0.0000   0.0000  24.8920   0.0000   0.0000   0.0000  24.8920 " ConfE="      -5949.6570" DelE="          0.0631"
Co     0.02789349   -3.49415050    0.01771502       1
Ni     0.01811507    0.03328625   -3.54221636       2
Cr     0.02406300    3.58817119    0.02237730       3
Co     0.00090603    0.08322030    3.63766947       4
Co    -3.52602800    0.04245149    0.06603360       5
Co     3.62643721    0.02249602    0.04253109       6
Ni    -1.73590439   -1.71196960    0.05728307       7
Ni     1.75617957   -1.67916917    0.04049613       8
Co    -1.69914540    0.03077002   -1.67680010       9
Co     1.72555134    0.07920466   -1.66953798      10
Co    -0.01140459   -1.67162485    1.80839179      11
Cr     0.02941216    1.74427425   -1.69414230      12
Co     0.05892406    1.79945226    1.74096476      13
Cr    -1.65526598    0.01145578    1.80561792      14
Ni     1.79121594    0.04710017    1.81624429      15
Co    -1.66348420    1.74972132    0.06447618      16
Cr     1.74294793    1.75399236    0.04558765      17
Cr    -0.00149556   -1.67226190   -1.71044189      18
