          18
Lattice="  24.8920   0.0000   0.0000   0.0000  24.8920   0.0000   0.0000   0.0000  24.8920 " ConfE="      -5938.5509" DelE="          0.0000"
Ni     0.00220679   -3.46650954    0.01307296       1
Ni     3.50561012    0.00565441    0.03492293       2
Ni     0.04015547    3.60739876    0.04977650       3
Cr    -3.54936550    0.07346515   -0.02438575       4
Cr    -0.02315385    0.03935707   -3.53341372       5
Co    -0.01595549    0.03098717    3.59942218       6
Ni    -0.00998886   -1.73407083   -1.75564341       7
Ni     0.01396603   -1.73760435    1.78824022       8
Ni     1.73443242    0.01254003   -1.74982815       9
Ni     1.75607401    0.00664771    1.79205562      10
Co    -1.86853041   -1.71817149    0.00764746      11
Ni     1.73854802    1.80868762    0.03843197      12
Co    -1.79255181    1.82215186    0.02899364      13
Co    -1.77357843    0.06887440   -1.78748554      14
Ni    -1.77316098    0.03972090    1.76999986      15
Cr    -0.01498985    1.80113094   -1.76273691      16
Co    -0.00988195    1.83232995    1.84264975      17
Ni     0.00000000    0.00000000    0.00000000      18
          18
Lattice="  24.8920   0.0000   0.0000   0.0000  24.8920   0.0000   0.0000   0.0000  24.8920 " ConfE="      -5937.6560" DelE="          0.8948"
Ni     0.00653518   -3.43041123    0.02559504       1
Ni     3.48583534   -0.00070006    0.03750776       2
Ni     0.06445958    3.60505131    0.04408379       3
Cr    -3.55570542    0.06163601   -0.03210216       4
Cr    -0.05265675    0.04500878   -3.60876049       5
Co    -0.02957788    0.05520255    3.66339074       6
Ni    -0.05155343   -1.76000486   -1.87764773       7
Ni    -0.04310882   -1.74223493    1.94820846       8
Ni     1.73962354    0.06636770   -1.90854919       9
Ni     1.76852971    0.07468937    1.95618463      10
Co    -1.81543807   -1.70925678    0.00460182      11
Ni     1.67141255    1.69399795    0.02989379      12
Co    -1.74391743    1.79665240    0.01955027      13
Co    -1.70023911    0.06732769   -1.74748414      14
Ni    -1.73081136    0.03477611    1.72486115      15
Cr    -0.03053509    1.73485626   -1.72088940      16
Co    -0.00993395    1.81913567    1.84759810      17
Ni     1.09560698   -1.04457650    0.02857476      18
          18
Lattice="  24.8920   0.0000   0.0000   0.0000  24.8920   0.0000   0.0000   0.0000  24.8920 " ConfE="      -5938.2804" DelE="          0.2705"
Ni    -0.02570068   -3.51114208    0.01773482       1
Ni     3.52353200    0.03712581    0.03609575       2
Ni     0.04574446    3.63378502    0.04580370       3
Cr    -3.56368736    0.08765612   -0.03675977       4
Cr    -0.03810901    0.04837857   -3.56722824       5
Co    -0.02269232    0.03606247    3.62137286       6
Ni    -0.03096805   -1.70619634   -1.73187730       7
Ni    -0.01790673   -1.71525858    1.77986234       8
Ni     1.68171415    0.03848956   -1.73629570       9
Ni     1.72058155    0.03855520    1.79783122      10
Co    -1.82824241   -1.69925363    0.00643071      11
Ni     1.68278038    1.77187699    0.03380709      12
Co    -1.74609003    1.81187756    0.01353773      13
Co    -1.72064585    0.09304671   -1.75241226      14
Ni    -1.74209899    0.05400790    1.72144779      15
Cr    -0.04081989    1.79106285   -1.74202958      16
Co    -0.02229627    1.83985902    1.84124849      17
Ni     1.73246571   -1.72111302    0.03430722      18
