          18
Lattice="  24.8920   0.0000   0.0000   0.0000  24.8920   0.0000   0.0000   0.0000  24.8920 " ConfE="      -5940.1925" DelE="          0.0000"
Ni    -0.03248077    0.03773879    3.49325618       1
Co    -0.01435811    3.58763139   -0.03046007       2
Co    -0.01272288    0.03190214   -3.56480128       3
Co    -0.03367151   -3.53659561   -0.01373991       4
Cr    -3.53420289   -0.02772197   -0.02238376       5
Cr     3.46363966    0.04563761    0.01145427       6
Ni    -1.74567625    0.03791281    1.76601217       7
Co     1.75056280    0.02916221    1.75073991       8
Ni    -1.75107777    1.78832925    0.02155905       9
Co     1.72913874    1.79680254    0.00311721      10
Cr    -0.05782034   -1.83999112    1.74024059      11
Cr     0.02850451    1.77830367   -1.74281177      12
Cr     0.00434852   -1.77181774   -1.79263202      13
Co    -1.79880073   -1.76330727   -0.02812914      14
Ni     1.74622595   -1.78001388    0.00113887      15
Co    -1.78061473    0.00501384   -1.79173411      16
Co     1.76393524    0.01552560   -1.79267406      17
Co     0.00000000    0.00000000    0.00000000      18
          18
Lattice="  24.8920   0.0000   0.0000   0.0000  24.8920   0.0000   0.0000   0.0000  24.8920 " ConfE="      -5939.2706" DelE="          0.9219"
Ni    -0.03060096    0.04134727    3.46561493       1
Co    -0.00991740    3.50220014   -0.02646286       2
Co    -0.00931892    0.04247786   -3.56168790       3
Co    -0.02224138   -3.51093004   -0.00526290       4
Cr    -3.63673364   -0.04536779   -0.04483298       5
Cr     3.64193224    0.01560588   -0.05677383       6
Ni    -1.89641899    0.01466927    1.78096113       7
Co     2.00356182   -0.03383546    1.76263839       8
Ni    -1.90290890    1.78619042   -0.00963733       9
Co     1.98268738    1.82785706   -0.06399182      10
Cr    -0.03565357   -1.64270781    1.63637501      11
Cr     0.07879440    1.59320273   -1.54187645      12
Cr     0.00577268   -1.63562329   -1.68401652      13
Co    -1.76278729   -1.70665652   -0.01450020      14
Ni     1.76495110   -1.71911910   -0.00138254      15
Co    -1.75653609    0.02346772   -1.75553018      16
Co     1.79260915    0.02163003   -1.77019928      17
Co     0.11018288    1.05888250    1.04842138      18
          18
Lattice="  24.8920   0.0000   0.0000   0.0000  24.8920   0.0000   0.0000   0.0000  24.8920 " ConfE="      -5939.5881" DelE="          0.6044"
Ni    -0.03607787    0.02326577    3.52198174       1
Co    -0.01709932    3.60690172   -0.05507257       2
Co    -0.01499330    0.03236851   -3.58583583       3
Co    -0.03199588   -3.54028157   -0.01636024       4
Cr    -3.59101468   -0.03479450   -0.02918199       5
Cr     3.55169768    0.02463553   -0.00924419       6
Ni    -1.75083489    0.01785186    1.72952932       7
Co     1.75855368    0.01067800    1.72696247       8
Ni    -1.78397823    1.76693377   -0.01463399       9
Co     1.75531852    1.77432949   -0.03511064      10
Cr    -0.05269783   -1.76029159    1.68231881      11
Cr     0.05372439    1.65915081   -1.64077198      12
Cr    -0.00931203   -1.68472666   -1.73484909      13
Co    -1.76767395   -1.73741471   -0.03358971      14
Ni     1.72053694   -1.73598496   -0.01084035      15
Co    -1.75566660    0.00352972   -1.77386625      16
Co     1.74748707    0.01230523   -1.77775302      17
Co     0.02442409    1.75125922    1.67648313      18
