          18
Lattice="  24.8920   0.0000   0.0000   0.0000  24.8920   0.0000   0.0000   0.0000  24.8920 " ConfE="      -5943.0114" DelE="          0.0000"
Co    -0.01966055    3.42986487    0.03311336       1
Co    -3.52191043   -0.07429965   -0.01368064       2
Co     0.01539716   -3.69943521    0.03306981       3
Cr     3.59760288   -0.11663384   -0.01274932       4
Cr     0.06259662   -0.08526222   -3.44998452       5
Ni    -0.00473443   -0.08528477    3.54455030       6
Co    -0.03070816    1.67470166   -1.70874152       7
Co    -0.03305239    1.69768028    1.72835692       8
Ni    -1.76726004   -0.07251921   -1.69585726       9
Ni    -1.72512794   -0.05168614    1.71022562      10
Co     1.82844533    1.70175557    0.02472336      11
Ni    -1.74539787   -1.90776688    0.02832322      12
Ni     1.76954777   -1.88303492   -0.00243718      13
Co     1.79810201   -0.06833282   -1.72061686      14
Cr     1.74804693   -0.03831048    1.72416728      15
Ni     0.00889907   -1.89281364   -1.74659644      16
Co     0.05625861   -1.85053045    1.78215276      17
Cr     0.00000000    0.00000000    0.00000000      18
          18
Lattice="  24.8920   0.0000   0.0000   0.0000  24.8920   0.0000   0.0000   0.0000  24.8920 " ConfE="      -5942.3886" DelE="          0.6228"
Co    -0.01126951    3.38579282    0.02905107       1
Co    -3.43781023   -0.04196961   -0.01802597       2
Co     0.00611217   -3.68938311    0.02710230       3
Cr     3.59019891   -0.11335152   -0.04347684       4
Cr     0.09192374   -0.14194970   -3.55794410       5
Ni    -0.00416178   -0.08862940    3.60062250       6
Co     0.01041241    1.69350458   -1.85484837       7
Co     0.02042523    1.73581484    1.90144528       8
Ni    -1.76549104   -0.10779602   -1.81902957       9
Ni    -1.76387028   -0.09366631    1.87328802      10
Co     1.77196539    1.66114540    0.03173644      11
Ni    -1.70407544   -1.81900388    0.04034011      12
Ni     1.74024003   -1.85167045   -0.01175439      13
Co     1.72516034   -0.05613729   -1.69755613      14
Cr     1.66995639   -0.04198035    1.68169161      15
Ni     0.00122182   -1.86003610   -1.74654247      16
Co     0.06192913   -1.80019582    1.78039765      17
Cr    -0.63165910    0.70415248    0.06009806      18
          18
Lattice="  24.8920   0.0000   0.0000   0.0000  24.8920   0.0000   0.0000   0.0000  24.8920 " ConfE="      -5943.2686" DelE="         -0.2571"
Co     0.03704178    3.49174059    0.02188954       1
Co    -3.53272480   -0.07916405   -0.01547897       2
Co     0.01972614   -3.72315888    0.03452044       3
Cr     3.59019920   -0.12636283   -0.03238211       4
Cr     0.07803813   -0.12485223   -3.49908940       5
Ni    -0.00266110   -0.08963379    3.56604039       6
Co    -0.00210413    1.63601047   -1.70664565       7
Co     0.00739732    1.67387215    1.72467709       8
Ni    -1.71333473   -0.12572537   -1.69165025       9
Ni    -1.68731877   -0.06239601    1.69551657      10
Co     1.76420022    1.64749929    0.02183483      11
Ni    -1.70464165   -1.88393094    0.03594934      12
Ni     1.75793286   -1.87449340   -0.00453780      13
Co     1.77680144   -0.07967685   -1.71386427      14
Cr     1.70419142   -0.04826888    1.67507578      15
Ni     0.02898192   -1.90247377   -1.74671826      16
Co     0.08397782   -1.84525810    1.79490745      17
Cr    -1.68137393    1.70987864   -0.02190522      18
