          18
Lattice="  24.8920   0.0000   0.0000   0.0000  24.8920   0.0000   0.0000   0.0000  24.8920 " ConfE="      -5933.4332" DelE="          0.0000"
Ni     0.00671993    0.00343012    3.45238664       1
Cr     3.55954539    0.07148723   -0.03287316       2
Ni    -0.03818923    0.01413678   -3.60137349       3
Cr    -3.59263753   -0.01332978   -0.07973962       4
Ni     0.00725267   -3.55906333   -0.04993398       5
Ni    -0.02064390    3.55522950   -0.04450161       6
Ni     0.01482939   -1.75762637    1.72326186       7
Cr    -0.09678387    1.78249141    1.71614129       8
Co     1.79459717   -1.69373544   -0.05070870       9
Ni     1.75480138    1.72210823    0.02755749      10
Cr    -1.86231787   -0.00626714    1.72874534      11
Co     1.76728949    0.03479323   -1.86066097      12
Cr    -1.79753256   -0.01038160   -1.84207495      13
Ni    -1.78273136   -1.77580788   -0.05867802      14
Co    -1.84344986    1.76984422   -0.04147803      15
Co    -0.00890573   -1.76173653   -1.83534864      16
Cr    -0.03822782    1.74798224   -1.77255121      17
Ni     0.00000000    0.00000000    0.00000000      18
          18
Lattice="  24.8920   0.0000   0.0000   0.0000  24.8920   0.0000   0.0000   0.0000  24.8920 " ConfE="      -5929.2575" DelE="          4.1757"
Ni     0.00946337    0.00445959    3.45313243       1
Cr     3.56868172    0.09826096   -0.04079181       2
Ni    -0.03516131    0.05923178   -3.67045962       3
Cr    -3.54028331   -0.01565327   -0.03410939       4
Ni     0.00454116   -3.55705441   -0.06017392       5
Ni    -0.00312451    3.59731006   -0.05774898       6
Ni     0.04288856   -1.79683950    1.75364018       7
Cr     0.01928254    2.10093593    1.85378918       8
Co     1.67734419   -1.57077895   -0.06979353       9
Ni     1.65885792    1.62661406    0.10721313      10
Cr    -2.47655398   -1.54366555    1.52189478      11
Co     1.69916029    0.07193634   -1.85157969      12
Cr    -1.83445107    0.09290483   -1.98275815      13
Ni    -1.25349421   -1.44975651   -0.37824066      14
Co    -1.89757930    1.98045848   -0.15538831      15
Co     0.13751285   -1.81438422   -2.13166020      16
Cr    -0.06972795    1.60805369   -1.63607055      17
Ni    -1.18254708    0.29899648    1.27151617      18
          18
Lattice="  24.8920   0.0000   0.0000   0.0000  24.8920   0.0000   0.0000   0.0000  24.8920 " ConfE="      -5933.9256" DelE="         -0.4924"
Ni     0.01524113    0.00413281    3.46751174       1
Cr     3.55416939    0.07200024   -0.03247680       2
Ni    -0.04099503    0.01893785   -3.60422147       3
Cr    -3.58488104   -0.01484245   -0.06965594       4
Ni     0.00958404   -3.55621842   -0.04316686       5
Ni    -0.02260250    3.55422676   -0.04140464       6
Ni     0.01365551   -1.76520793    1.72525098       7
Cr    -0.07363677    1.81543657    1.73664844       8
Co     1.77720497   -1.69730204   -0.04743864       9
Ni     1.75633732    1.73023406    0.03029000      10
Cr    -1.78620698   -1.77464434   -0.08468938      11
Co     1.75566710    0.03791332   -1.85296351      12
Cr    -1.79011971   -0.00042896   -1.82418293      13
Ni     0.00763784    0.00841982    0.00338939      14
Co    -1.84573355    1.77182510   -0.04421532      15
Co    -0.01886732   -1.75825387   -1.81639469      16
Cr    -0.03743089    1.76042851   -1.77706328      17
Ni    -1.80334959   -0.01375364    1.72195281      18
