          18
Lattice="  24.8920   0.0000   0.0000   0.0000  24.8920   0.0000   0.0000   0.0000  24.8920 " ConfE="      -5925.3963" DelE="          0.0000"
Ni     0.03274195    0.03254997   -3.51032739       1
Ni     3.49709185   -0.00740503   -0.04171448       2
Cr    -3.61387269   -0.01847607    0.00451264       3
Co    -0.03326747    0.01941060    3.58701661       4
Co    -0.02362749   -3.54399286    0.01614267       5
Co    -0.06496083    3.52648801    0.02528119       6
Ni     0.01799126   -1.76059887   -1.78083415       7
Ni     0.00706167    1.76663865   -1.77852659       8
Ni     1.76415999   -1.76155886   -0.02376383       9
Ni     1.78066190    1.75450058   -0.03874476      10
Ni    -1.78802231   -1.76045204    0.00300863      11
Cr    -1.82487984    0.07569096   -1.74492953      12
Cr     1.76316144    0.01885072    1.80186248      13
Cr    -1.82483010    0.03054203    1.81229685      14
Cr    -0.02357769   -1.69775440    1.80012001      15
Co    -1.83857137    1.74459370    0.00474958      16
Co    -0.04625777    1.75252814    1.80232309      17
Ni     0.00000000    0.00000000    0.00000000      18
          18
Lattice="  24.8920   0.0000   0.0000   0.0000  24.8920   0.0000   0.0000   0.0000  24.8920 " ConfE="      -5924.5517" DelE="          0.8446"
Ni     0.04379910    0.01795068   -3.40809212       1
Ni     3.40447502   -0.01295460   -0.05339888       2
Cr    -3.61494089   -0.02608511    0.00539444       3
Co    -0.03094967    0.02199822    3.59800064       4
Co    -0.02574128   -3.63107594    0.03488183       5
Co    -0.07075943    3.59656739    0.05172435       6
Ni    -0.02708858   -1.95480859   -1.81025326       7
Ni    -0.04261797    1.93267888   -1.79773819       8
Ni     1.80059810   -1.94042197    0.00857714       9
Ni     1.81258449    1.92649135   -0.00278277      10
Ni    -1.76260532   -1.80187531   -0.00567622      11
Cr    -1.73878223    0.04786799   -1.63078852      12
Cr     1.61782792    0.02840354    1.69494218      13
Cr    -1.64862769    0.03612701    1.63782718      14
Cr    -0.00425814   -1.70886500    1.73635588      15
Co    -1.80528748    1.75942047   -0.01551238      16
Co    -0.02169245    1.73365605    1.75180711      17
Ni     0.72956413   -0.01182881   -0.72707702      18
          18
Lattice="  24.8920   0.0000   0.0000   0.0000  24.8920   0.0000   0.0000   0.0000  24.8920 " ConfE="      -5925.4083" DelE="         -0.0119"
Ni    -0.01317267    0.04284176   -3.55308576       1
Ni     3.52764019   -0.01451454   -0.00603266       2
Cr    -3.63567518   -0.02006044    0.00555893       3
Co    -0.03469931    0.02176014    3.61914215       4
Co    -0.03086964   -3.56559015    0.01615118       5
Co    -0.06765751    3.54609340    0.03354590       6
Ni    -0.00929890   -1.75569107   -1.76478622       7
Ni    -0.00735580    1.76474417   -1.76022169       8
Ni     1.73351110   -1.75609746   -0.00539436       9
Ni     1.76324618    1.75553077   -0.02145905      10
Ni    -1.75336674   -1.72228206    0.00627307      11
Cr    -1.78050568    0.08832263   -1.69410477      12
Cr     1.65262095    0.02873591    1.72133340      13
Cr    -1.73536744    0.05659500    1.74241439      14
Cr    -0.02511804   -1.66679456    1.76780016      15
Co    -1.80883168    1.71154403   -0.00651871      16
Co    -0.03397139    1.68680364    1.75699827      17
Ni     1.77528306   -0.01045221   -1.80326743      18
