          18
Lattice="  24.8920   0.0000   0.0000   0.0000  24.8920   0.0000   0.0000   0.0000  24.8920 " ConfE="      -5933.7561" DelE="          0.0000"
Co     0.00492875    0.02899693    3.48142528       1
Co    -0.07786342    3.51697991   -0.01463798       2
Cr    -0.05406560   -0.03229759   -3.57126519       3
Ni    -0.01793734   -3.56504845   -0.02227565       4
Ni    -3.60397299    0.01561131    0.00324256       5
Cr     3.50491460   -0.00333901   -0.00466968       6
Co    -1.75297986    0.05033713    1.74105039       7
Cr     1.70379521    0.01735501    1.81890455       8
Cr    -1.72327339    1.70881596    0.08284347       9
Ni     1.72390195    1.73614392    0.01053943      10
Ni    -0.05479327   -1.79996789    1.74257662      11
Co    -0.05260727    1.75007457   -1.83648595      12
Ni    -0.05322963   -1.79105179   -1.76341794      13
Cr    -1.86026825   -1.73853373    0.01324427      14
Cr     1.79010317   -1.76958928   -0.04107396      15
Ni    -1.82746953   -0.00956966   -1.77247583      16
Cr     1.73199090   -0.03084233   -1.85625664      17
Ni     0.00000000    0.00000000    0.00000000      18
          18
Lattice="  24.8920   0.0000   0.0000   0.0000  24.8920   0.0000   0.0000   0.0000  24.8920 " ConfE="      -5933.1185" DelE="          0.6376"
Co    -0.00815131    0.01167698    3.48375057       1
Co    -0.05732066    3.51602972   -0.00362447       2
Cr    -0.04811496   -0.01527173   -3.55431180       3
Ni    -0.01670232   -3.55499268   -0.00933085       4
Ni    -3.67900966   -0.00661866   -0.00136457       5
Cr     3.60239881   -0.00577795   -0.02831632       6
Co    -1.96784406   -0.09179816    1.81041938       7
Cr     1.92470255   -0.06445424    1.79247551       8
Cr    -1.86355025    1.72310202   -0.00815846       9
Ni     1.86744701    1.76258385   -0.05343207      10
Ni    -0.03731045   -1.73134118    1.71093589      11
Co    -0.04206159    1.72442580   -1.75549067      12
Ni    -0.05291295   -1.72749900   -1.69443211      13
Cr    -1.83038303   -1.66477628    0.06800617      14
Cr     1.75853718   -1.69528947   -0.03288327      15
Ni    -1.83133231   -0.00877962   -1.73837231      16
Cr     1.71526104   -0.00118771   -1.79564096      17
Ni     0.00614355    0.78373148    0.95138563      18
          18
Lattice="  24.8920   0.0000   0.0000   0.0000  24.8920   0.0000   0.0000   0.0000  24.8920 " ConfE="      -5933.7889" DelE="         -0.0328"
Co     0.00042581   -0.03233000    3.53349688       1
Co    -0.07514076    3.57381923   -0.03319127       2
Cr    -0.04782504   -0.03950563   -3.58226882       3
Ni    -0.02172188   -3.57683394   -0.02197588       4
Ni    -3.64040472   -0.00186294   -0.00324929       5
Cr     3.55636348   -0.00679136   -0.01901779       6
Co    -1.75726197   -0.00392474    1.68897635       7
Cr     1.71988265   -0.02709619    1.69933891       8
Cr    -1.72704848    1.62243170    0.01964143       9
Ni     1.71762534    1.71106863   -0.03064864      10
Ni    -0.04849832   -1.75734424    1.69789761      11
Co    -0.06471083    1.72640694   -1.78422624      12
Ni    -0.05688509   -1.75240571   -1.71548400      13
Cr    -1.83756712   -1.70289951    0.02550047      14
Cr     1.75366366   -1.72815982   -0.04312863      15
Ni    -1.81963041   -0.02632463   -1.76136384      16
Cr     1.71134292   -0.03686629   -1.80678169      17
Ni    -0.02265020    1.76208924    1.73848962      18
