          18
Lattice="  24.8920   0.0000   0.0000   0.0000  24.8920   0.0000   0.0000   0.0000  24.8920 " ConfE="      -5944.6659" DelE="          0.0000"
Ni    -0.01330240    3.48185962   -0.02904639       1
Co     3.41964997   -0.06294086    0.02354039       2
Cr    -0.08672971   -3.67628019    0.05275786       3
Cr    -3.67242423   -0.00027435   -0.02911521       4
Ni    -0.04765217   -0.08656701   -3.55236094       5
Ni    -0.05115957   -0.03395574    3.52330658       6
Cr    -0.02091008    1.69656044   -1.72666619       7
Ni     0.01977946    1.72758455    1.70964909       8
Ni     1.73724120   -0.04133538   -1.77014598       9
Cr     1.73092177   -0.13350627    1.74546291      10
Co    -1.88715207    1.75734318   -0.01554468      11
Ni     1.69960734   -1.88538705   -0.01737294      12
Ni    -1.84560426   -1.83334171    0.00252271      13
Ni    -1.83564505   -0.03374445   -1.76125336      14
Ni    -1.83722635   -0.03928294    1.74604875      15
Cr    -0.05594600   -1.83627228   -1.74711338      16
Co    -0.04638065   -1.84164637    1.76814602      17
Cr     0.00000000    0.00000000    0.00000000      18
          18
Lattice="  24.8920   0.0000   0.0000   0.0000  24.8920   0.0000   0.0000   0.0000  24.8920 " ConfE="      -5943.2896" DelE="          1.3764"
Ni     0.02122747    3.41753519   -0.04014003       1
Co     3.40775382    0.02586061    0.01175628       2
Cr    -0.04911045   -3.57868322    0.06122772       3
Cr    -3.62779262    0.02153899   -0.02695790       4
Ni    -0.05806423   -0.09857851   -3.61499159       5
Ni    -0.07665437   -0.04098593    3.59543932       6
Cr    -0.02410000    1.73418611   -1.89319762       7
Ni    -0.08106631    1.77077054    1.88446222       8
Ni     1.80811230   -0.04998568   -1.90982690       9
Cr     1.75519789   -0.07303673    1.88935013      10
Co    -1.79993077    1.74060589   -0.02263925      11
Ni     1.71600818   -1.75598239    0.01266319      12
Ni    -1.80728470   -1.77423605    0.01466427      13
Ni    -1.78192456   -0.00701530   -1.74521689      14
Ni    -1.80548661   -0.01763024    1.75313446      15
Cr    -0.00172935   -1.68178461   -1.65100373      16
Co    -0.01315792   -1.76527716    1.76427182      17
Cr     0.78706739    0.79181306   -0.00341336      18
          18
Lattice="  24.8920   0.0000   0.0000   0.0000  24.8920   0.0000   0.0000   0.0000  24.8920 " ConfE="      -5944.7181" DelE="         -0.0521"
Ni    -0.05870064    3.51254291   -0.02113104       1
Co     3.46120870   -0.08320392    0.01582015       2
Cr    -0.07950702   -3.66750970    0.05531677       3
Cr    -3.67091016    0.00148926   -0.03447599       4
Ni    -0.04250826   -0.08226453   -3.55155978       5
Ni    -0.05689915   -0.03275218    3.53138027       6
Cr    -0.01423013    1.72257662   -1.74832817       7
Ni    -0.04194174    1.74315472    1.75544836       8
Ni     1.75221328   -0.05127168   -1.78873304       9
Cr     1.72746836   -0.09051565    1.75783888      10
Co    -1.87835880    1.75819037   -0.01686568      11
Ni     1.70302245   -1.85796176   -0.01059883      12
Ni    -1.84417487   -1.83102492    0.00144637      13
Ni    -1.82965749   -0.02924225   -1.76507217      14
Ni    -1.84727549   -0.04260356    1.75240111      15
Cr    -0.05010645   -1.84400405   -1.74930527      16
Co    -0.04288214   -1.83243253    1.77232961      17
Cr    -0.02235652   -0.00636720    0.00430874      18
