          18
Lattice="  24.8920   0.0000   0.0000   0.0000  24.8920   0.0000   0.0000   0.0000  24.8920 " ConfE="      -5936.9932" DelE="          0.0000"
Cr    -0.05105371    0.06165187   -3.51308657       1
Cr    -3.49901357   -0.01792018    0.07648905       2
Ni     0.00491253   -0.01206492    3.61274308       3
Co     3.55554232   -0.04429239    0.06643616       4
Ni    -0.00380658   -3.55312604    0.03117037       5
Co    -0.00486641    3.51197021    0.07858073       6
Ni    -0.01433551   -1.75203417   -1.75271702       7
Ni    -0.05394414    1.73142868   -1.70891159       8
Ni    -1.78187426   -1.73895643    0.03747141       9
Co    -1.78027552    1.72407423    0.05471010      10
Cr     1.76768284    0.01407320   -1.73537229      11
Ni    -1.78104205   -0.00656185    1.84361748      12
Co     1.77644140   -0.00886064    1.80097823      13
Co     1.81198179   -1.75885946    0.06847143      14
Cr     1.69992742    1.60112606    0.09109047      15
Ni    -0.00390390   -1.77364794    1.82528333      16
Co    -0.00393946    1.76134767    1.80389111      17
Co     0.00000000    0.00000000    0.00000000      18
          18
Lattice="  24.8920   0.0000   0.0000   0.0000  24.8920   0.0000   0.0000   0.0000  24.8920 " ConfE="      -5936.2710" DelE="          0.7222"
Cr    -0.09630102    0.04179847   -3.38226524       1
Cr    -3.39960002   -0.02176071    0.00375394       2
Ni    -0.00213560   -0.01210558    3.59613295       3
Co     3.54690022   -0.05429928    0.06066265       4
Ni     0.00201539   -3.62103747    0.04014014       5
Co     0.02829031    3.59478798    0.08620493       6
Ni     0.01471722   -1.96678633   -1.78532332       7
Ni    -0.01935872    1.92665664   -1.72635927       8
Ni    -1.82994637   -1.93608548    0.09205582       9
Co    -1.77323771    1.91239959    0.10712485      10
Cr     1.64866004   -0.01854689   -1.67290315      11
Ni    -1.74549201   -0.00644754    1.75674160      12
Co     1.73483655   -0.00560840    1.74579563      13
Co     1.77779421   -1.75665408    0.04936627      14
Cr     1.61546456    1.57742983    0.08437886      15
Ni    -0.01096061   -1.76166315    1.77200653      16
Co     0.01503740    1.75798340    1.75970259      17
Co    -0.77427100   -0.02395153   -0.74518202      18
          18
Lattice="  24.8920   0.0000   0.0000   0.0000  24.8920   0.0000   0.0000   0.0000  24.8920 " ConfE="      -5937.0473" DelE="         -0.0541"
Cr    -0.01745732    0.06527293   -3.52628313       1
Cr    -3.54643806   -0.03259498    0.08144104       2
Ni     0.00640526   -0.00556875    3.61252045       3
Co     3.58448756   -0.04574612    0.07072228       4
Ni     0.00038521   -3.57263840    0.03969208       5
Co     0.01765875    3.54148754    0.08000566       6
Ni     0.02146221   -1.75323163   -1.71287435       7
Ni     0.00948323    1.71802080   -1.64583770       8
Ni    -1.75149743   -1.73580882    0.05965099       9
Co    -1.75450570    1.74617228    0.07149460      10
Cr     1.73384919    0.00773225   -1.68529236      11
Ni    -1.76338657    0.00226402    1.80158606      12
Co     1.75554325    0.00486744    1.75810896      13
Co     1.80158168   -1.73002056    0.07088457      14
Cr     1.72609569    1.59166324    0.10580979      15
Ni     0.00544305   -1.75155279    1.81077971      16
Co     0.01979620    1.74507789    1.75838073      17
Co    -1.72092433   -0.00279048   -1.71904579      18
