          18
Lattice="  24.8920   0.0000   0.0000   0.0000  24.8920   0.0000   0.0000   0.0000  24.8920 " ConfE="      -5940.3149" DelE="          0.0000"
Ni    -0.00183670   -0.01891854    3.46597502       1
Ni     3.47852441    0.00711551    0.01730802       2
Ni    -0.01210532   -3.55007753   -0.02810424       3
Cr    -0.03390729    0.01449887   -3.57766527       4
Cr    -3.61184221   -0.03760530   -0.08178580       5
Cr    -0.02747633    3.56146487   -0.01874047       6
Co     1.74441873   -1.72402002   -0.00740482       7
Cr    -0.05987451   -1.79695403    1.73390399       8
Ni    -0.02404247   -1.76935684   -1.80455838       9
Co     0.01453272    1.78838824    1.69487474      10
Cr     1.78650748    1.75577177   -0.03105755      11
Ni    -1.83113763   -0.02348292    1.73227816      12
Ni    -1.81535030    1.77093062   -0.02053856      13
Ni    -0.03678021    1.80062122   -1.80194751      14
Co    -1.83805974   -1.78666863   -0.07325256      15
Co     1.75182768    0.03167205   -1.84680154      16
Cr    -1.82444184    0.00130114   -1.82862765      17
Ni     0.00000000    0.00000000    0.00000000      18
          18
Lattice="  24.8920   0.0000   0.0000   0.0000  24.8920   0.0000   0.0000   0.0000  24.8920 " ConfE="      -5939.8149" DelE="          0.5001"
Ni     0.00224188    0.00187165    3.41114132       1
Ni     3.48450307   -0.00326407    0.00887376       2
Ni    -0.01596185   -3.58715196   -0.04040200       3
Cr    -0.03219789    0.01487365   -3.59080929       4
Cr    -3.62612269   -0.03751104   -0.08178521       5
Cr    -0.02967443    3.60610842   -0.03768637       6
Co     1.77826397   -1.82735058   -0.04798506       7
Cr    -0.10838136   -1.93373542    1.77097796       8
Ni    -0.01872594   -1.77432131   -1.79615031       9
Co    -0.08669708    2.04206562    1.75570757      10
Cr     1.82276783    1.85803106   -0.06018239      11
Ni    -1.81887600   -0.02202448    1.71621471      12
Ni    -1.77652218    1.74623492   -0.02112647      13
Ni    -0.02676200    1.80346903   -1.79036537      14
Co    -1.81358464   -1.77518033   -0.07279222      15
Co     1.71603383    0.02867930   -1.78962179      16
Cr    -1.77516524   -0.00962543   -1.78006646      17
Ni     0.47810645    0.03399488    0.66351485      18
          18
Lattice="  24.8920   0.0000   0.0000   0.0000  24.8920   0.0000   0.0000   0.0000  24.8920 " ConfE="      -5939.9402" DelE="          0.3748"
Ni    -0.00289608   -0.00064774    3.45997915       1
Ni     3.42940614   -0.00373772    0.03563633       2
Ni    -0.01581388   -3.60785857   -0.05006069       3
Cr    -0.02476186    0.01374808   -3.57346094       4
Cr    -3.60560773   -0.03802435   -0.07069136       5
Cr    -0.03951340    3.62743699   -0.04360693       6
Co     1.78286203   -1.87727902   -0.07781453       7
Cr    -0.12730047   -1.94292171    1.74691412       8
Ni    -0.00969692   -1.76180848   -1.77726057       9
Co    -0.10230093    2.03525355    1.72668979      10
Cr     1.80398020    1.88510459   -0.08719217      11
Ni    -1.74021012   -0.00789198    1.69117761      12
Ni    -1.79333996    1.76547533   -0.03326574      13
Ni    -0.02645072    1.78955627   -1.76867609      14
Co    -1.79653084   -1.76964638   -0.07175296      15
Co     1.72077095    0.02762880   -1.78845722      16
Cr    -1.77214232   -0.00906460   -1.77524663      17
Ni     0.88713680    0.00524979    1.01736276      18
