          18
Lattice="  24.8920   0.0000   0.0000   0.0000  24.8920   0.0000   0.0000   0.0000  24.8920 " ConfE="      -5940.5503" DelE="          0.0000"
Ni    -0.05327926    3.45084475   -0.09731202       1
Cr     3.39413256   -0.06920811   -0.03293894       2
Cr    -0.05814644   -3.68112421   -0.12601449       3
Ni    -3.60720462   -0.10829035   -0.07632882       4
Cr    -0.04393504   -0.05495549   -3.65635829       5
Ni    -0.05147345   -0.06660015    3.47476712       6
Co    -0.00340042    1.66254775   -1.84196476       7
Co    -0.04135663    1.68453636    1.64980236       8
Cr     1.64047067   -0.00629724   -1.79497528       9
Co     1.69888611   -0.05295141    1.64633396      10
Co    -1.87689627    1.67712340   -0.11127674      11
Co     1.64357587   -1.89781961   -0.08538849      12
Co    -1.80813428   -1.85856060   -0.07437168      13
Cr    -1.73109071   -0.08902829   -1.81809329      14
Ni    -1.85822350   -0.08330803    1.72529319      15
Cr    -0.04414630   -1.89075267   -1.87778836      16
Cr    -0.10977288   -1.83854105    1.74076421      17
Cr     0.00000000    0.00000000    0.00000000      18
          18
Lattice="  24.8920   0.0000   0.0000   0.0000  24.8920   0.0000   0.0000   0.0000  24.8920 " ConfE="      -5939.4863" DelE="          1.0639"
Ni    -0.06936321    3.42694059   -0.10307292       1
Cr     3.42744642   -0.09603148   -0.03301485       2
Cr    -0.07311609   -3.57509012   -0.13247525       3
Ni    -3.51731221   -0.15154204   -0.06219302       4
Cr    -0.05035719   -0.03473612   -3.77712694       5
Ni    -0.07284486   -0.07154078    3.56402018       6
Co    -0.03369452    1.71180727   -1.98256964       7
Co    -0.12457868    1.69992555    1.82189403       8
Cr     1.63435010   -0.07609063   -1.90824707       9
Co     1.68207115   -0.09635476    1.78746346      10
Co    -1.77606048    1.59001392   -0.10364379      11
Co     1.58802418   -1.76788951   -0.07210649      12
Co    -0.93933476   -1.11732487   -0.07182459      13
Cr    -1.66994222   -0.01510187   -1.90468937      14
Ni    -1.87087943   -0.06623087    1.84830381      15
Cr    -0.00107169   -1.88892670   -2.05584488      16
Cr    -0.08184331   -1.85426518    1.90817264      17
Cr     0.80159052    0.89542725   -0.03843578      18
          18
Lattice="  24.8920   0.0000   0.0000   0.0000  24.8920   0.0000   0.0000   0.0000  24.8920 " ConfE="      -5940.7629" DelE="         -0.2127"
Ni    -0.09282504    3.47977267   -0.10249599       1
Cr     3.45074726   -0.11216160   -0.04124410       2
Cr    -0.09715039   -3.60176958   -0.09997545       3
Ni    -3.56452809   -0.15555632   -0.07451387       4
Cr    -0.06106811   -0.06414045   -3.62457798       5
Ni    -0.06562520   -0.09237702    3.46214052       6
Co    -0.04045720    1.67686303   -1.87074122       7
Co    -0.08536420    1.67356419    1.66274543       8
Cr     1.66856409   -0.06220130   -1.84313942       9
Co     1.68869317   -0.08457201    1.66995638      10
Co    -1.86208283    1.68355860   -0.11387604      11
Co     1.68554443   -1.86933565   -0.08784726      12
Co    -0.09562120   -0.12703796   -0.10204472      13
Cr    -1.77586101   -0.11158807   -1.81539488      14
Ni    -1.85528223   -0.13003253    1.70175390      15
Cr    -0.10225793   -1.86922794   -1.79237866      16
Cr    -0.15560575   -1.86001659    1.66162965      17
Cr     1.66319739    1.67726245   -0.06927194      18
