          18
Lattice="  24.8920   0.0000   0.0000   0.0000  24.8920   0.0000   0.0000   0.0000  24.8920 " ConfE="      -5950.0263" DelE="          0.0000"
Ni    -0.01810775   -0.03395447   -3.49660934       1
Ni     0.01797899    0.03756757    3.58314461       2
Co    -3.55060229    0.06774089   -0.04673494       3
Co     0.08070158   -3.56068955    0.04906733       4
Co     0.03847545    3.55776149    0.03430503       5
Cr     3.55391896    0.02604230    0.00691349       6
Ni    -0.00044419   -1.77380960   -1.73353566       7
Ni    -1.74831829   -1.74282105    0.01974515       8
Ni    -1.74090201    1.77676698    0.00680946       9
Co    -0.07968054    1.76521719   -1.77390968      10
Ni     1.76134607    1.75841041   -0.00614344      11
Ni     0.02469174   -1.75132703    1.79763259      12
Ni    -1.74632718    0.01166830    1.81699892      13
Co     1.79735915   -0.01489885   -1.74708620      14
Cr     1.82940915   -1.71726610    0.02505611      15
Cr     0.04051034    1.81369720    1.80345718      16
Co     1.79007504    0.03641456    1.79779963      17
Ni     0.00000000    0.00000000    0.00000000      18
          18
Lattice="  24.8920   0.0000   0.0000   0.0000  24.8920   0.0000   0.0000   0.0000  24.8920 " ConfE="      -5949.1806" DelE="          0.8457"
Ni    -0.03404302   -0.03209027   -3.43958377       1
Ni    -0.00246512    0.02458922    3.57358959       2
Co    -3.51359353    0.06984193   -0.05038680       3
Co     0.09332435   -3.62190100    0.06329710       4
Co     0.06189961    3.62869510    0.05572111       5
Cr     3.56452785    0.04116719   -0.00032949       6
Ni     0.04372028   -1.92655979   -1.76143205       7
Ni    -1.75888606   -1.89338095    0.06384636       8
Ni    -1.75945007    1.94956421    0.07606508       9
Co    -0.03105855    1.95989013   -1.81284939      10
Ni     1.70995348    1.75214494   -0.01224440      11
Ni     0.02608436   -1.75387116    1.75942998      12
Ni    -1.70526838    0.01170413    1.72120247      13
Co     1.72238507   -0.01861288   -1.69887195      14
Cr     1.77944221   -1.66871093    0.01000146      15
Cr     0.03603913    1.80262764    1.78975767      16
Co     1.73051537    0.03535785    1.73833455      17
Ni    -0.81198148    0.03756601   -0.80599374      18
          18
Lattice="  24.8920   0.0000   0.0000   0.0000  24.8920   0.0000   0.0000   0.0000  24.8920 " ConfE="      -5950.0026" DelE="          0.0237"
Ni    -0.00046269   -0.03964762   -3.52428764       1
Ni     0.02036503    0.03096081    3.59855070       2
Co    -3.59972224    0.04889825    0.01774136       3
Co     0.09506370   -3.59143201    0.05636276       4
Co     0.03918880    3.59142490    0.04353499       5
Cr     3.57566432    0.05163293    0.00349447       6
Ni     0.01620335   -1.76843906   -1.69426048       7
Ni    -1.71503003   -1.74531919    0.04969426       8
Ni    -1.70160343    1.77126039    0.04618269       9
Co    -0.06125706    1.78952736   -1.75856720      10
Ni     1.71049887    1.73267701    0.00079670      11
Ni     0.04685624   -1.73160330    1.75837591      12
Ni    -1.70705871    0.01501994    1.78311179      13
Co     1.74071409   -0.02145001   -1.70030694      14
Cr     1.82347087   -1.66278257    0.02334097      15
Cr     0.05042643    1.80778345    1.81891574      16
Co     1.75475580    0.03689509    1.76087761      17
Ni    -1.76851299    0.00382094   -1.70723106      18
