          18
Lattice="  24.8920   0.0000   0.0000   0.0000  24.8920   0.0000   0.0000   0.0000  24.8920 " ConfE="      -5922.8122" DelE="          0.0000"
Ni     3.53154281   -0.06092936   -0.00672757       1
Ni    -3.60698656    0.00715664   -0.01375529       2
Ni    -0.02247082   -0.02725499   -3.53087245       3
Co     0.03291630   -0.00045548    3.51604926       4
Cr    -0.03911332   -3.56818367    0.01677470       5
Cr    -0.00008481    3.51457942   -0.01098972       6
Ni     1.78348776   -1.78122074    0.03612749       7
Ni     1.77938103    1.69568818    0.01903794       8
Ni     0.02312722   -1.75791023    1.76598673       9
Ni     0.00391210    1.73103982    1.75690170      10
Ni    -1.80033401   -1.78397299    0.00643891      11
Ni    -1.79331437    0.00444703   -1.76694231      12
Cr     1.77196911   -0.07759627   -1.78346984      13
Cr    -1.77673756    1.77000107    0.02771180      14
Co    -0.02809290   -1.79302169   -1.74104458      15
Co     0.00809480    1.78302220   -1.74820209      16
Co    -1.81912332   -0.00850117    1.78586781      17
Cr     0.00000000    0.00000000    0.00000000      18
          18
Lattice="  24.8920   0.0000   0.0000   0.0000  24.8920   0.0000   0.0000   0.0000  24.8920 " ConfE="      -5921.7221" DelE="          1.0902"
Ni     3.43493306   -0.05643167    0.00649489       1
Ni    -3.59327857   -0.00021049   -0.00478515       2
Ni    -0.01380530   -0.02735472   -3.52992235       3
Co     0.03493569   -0.00225352    3.44322719       4
Cr    -0.08346120   -3.66210888   -0.01072046       5
Cr    -0.03791802    3.63271796   -0.03709460       6
Ni     1.78573898   -1.94306848    0.01580102       7
Ni     1.81757565    1.89176972   -0.02501013       8
Ni    -0.02280903   -1.92462261    1.79381845       9
Ni    -0.05320050    1.92964048    1.76241770      10
Ni    -1.74228790   -1.78062345    0.02422672      11
Ni    -1.73066361    0.00080177   -1.70567071      12
Cr     1.69018705   -0.08266068   -1.69414160      13
Cr    -1.71238901    1.73378910    0.03534774      14
Co     0.01669304   -1.76441606   -1.69170686      15
Co     0.02165218    1.75766920   -1.67301259      16
Co    -1.73320007    0.01212894    1.73011833      17
Cr     0.78229099    0.01013407    0.82429874      18
          18
Lattice="  24.8920   0.0000   0.0000   0.0000  24.8920   0.0000   0.0000   0.0000  24.8920 " ConfE="      -5922.7797" DelE="          0.0325"
Ni     3.57176631   -0.06400498   -0.03819664       1
Ni    -3.62621667    0.00804062   -0.01822407       2
Ni    -0.02689119   -0.02705646   -3.54386957       3
Co    -0.00624465   -0.01166825    3.56338323       4
Cr    -0.05211131   -3.58446459    0.00145484       5
Cr    -0.01553443    3.53474025   -0.01288930       6
Ni     1.76763611   -1.78962552   -0.00022007       7
Ni     1.74268445    1.67806542   -0.01755930       8
Ni    -0.00643377   -1.75712168    1.73261703       9
Ni    -0.03072782    1.71375871    1.71799087      10
Ni    -1.79062558   -1.77248454   -0.00545904      11
Ni    -1.76534392    0.00927106   -1.73109644      12
Cr     1.74390623   -0.08558986   -1.75825008      13
Cr    -1.77776665    1.76854856    0.02562554      14
Co    -0.01344754   -1.76475033   -1.73284184      15
Co    -0.00866051    1.76473233   -1.72203060      16
Co    -1.79059846   -0.00835211    1.76020871      17
Cr     1.76533130   -0.02539189    1.76451868      18
