          18
Lattice="  24.8920   0.0000   0.0000   0.0000  24.8920   0.0000   0.0000   0.0000  24.8920 " ConfE="      -5949.5332" DelE="          0.0000"
Co     0.04963309   -3.38296052    0.05116133       1
Co     0.10947793    0.04614584    3.51568176       2
Co     0.02230600    3.66467430   -0.06165595       3
Ni     0.05010294    0.08192432   -3.60158549       4
Co    -3.47913455    0.09036316   -0.02224532       5
Co     3.69730474    0.04570210   -0.01513369       6
Cr    -1.68458410   -1.65636944    0.02070800       7
Ni     1.85381761   -1.68531893   -0.01294022       8
Ni    -1.68590535    0.06984355    1.74088125       9
Ni     1.84759564    0.02094486    1.74296774      10
Ni     0.05686305   -1.67178785   -1.82688846      11
Ni     0.08906540    1.86131462    1.73508892      12
Ni     0.05856076    1.84055482   -1.78558907      13
Co    -1.73324750    0.08772447   -1.80876991      14
Ni     1.84611785    0.06869165   -1.78213034      15
Co    -1.71982524    1.87201718   -0.02128117      16
Ni     1.83574960    1.82153668   -0.02160595      17
Co     0.00000000    0.00000000    0.00000000      18
          18
Lattice="  24.8920   0.0000   0.0000   0.0000  24.8920   0.0000   0.0000   0.0000  24.8920 " ConfE="      -5949.0449" DelE="          0.4883"
Co     0.07074525   -3.36159508    0.05260888       1
Co     0.11001628    0.02884995    3.46556028       2
Co     0.01512232    3.66610108   -0.05351764       3
Ni     0.04605789    0.07237488   -3.58708087       4
Co    -3.53628892    0.10846819   -0.01683074       5
Co     3.75450233    0.05205619   -0.02859416       6
Cr    -1.86513612   -1.66850955   -0.04773301       7
Ni     2.01995729   -1.72924760   -0.04632107       8
Ni    -1.82131183    0.13583520    1.77511880       9
Ni     1.95339641    0.04617917    1.74690086      10
Ni     0.06700337   -1.65684727   -1.76418088      11
Ni     0.07736848    1.79865566    1.69692309      12
Ni     0.05509803    1.81302209   -1.74795848      13
Co    -1.69633736    0.06757608   -1.71488200      14
Ni     1.83309055    0.05422844   -1.74141758      15
Co    -1.74255855    1.87492393   -0.01768744      16
Ni     1.83183216    1.79481296   -0.01268990      17
Co    -0.00496682   -0.75488802    0.62150161      18
          18
Lattice="  24.8920   0.0000   0.0000   0.0000  24.8920   0.0000   0.0000   0.0000  24.8920 " ConfE="      -5950.0893" DelE="         -0.5560"
Co     0.09422080   -3.46463949   -0.02333999       1
Co     0.09797229    0.07324097    3.54269590       2
Co     0.01983277    3.67919247   -0.06457057       3
Ni     0.04463614    0.08139688   -3.60790170       4
Co    -3.50065622    0.09008980   -0.01914250       5
Co     3.71037823    0.04643969   -0.02064183       6
Cr    -1.69385945   -1.66044285    0.00236246       7
Ni     1.86233987   -1.67063010   -0.02952967       8
Ni    -1.66087334    0.07833831    1.68364499       9
Ni     1.86194309    0.06077367    1.73160493      10
Ni     0.04988355   -1.62725511   -1.76011650      11
Ni     0.08884205    1.82761168    1.70444399      12
Ni     0.05750923    1.83033239   -1.77462374      13
Co    -1.71851463    0.09000727   -1.76097137      14
Ni     1.82899058    0.07626715   -1.76638282      15
Co    -1.71090962    1.86568613   -0.03146058      16
Ni     1.82713344    1.81428164   -0.02832111      17
Co     0.08746787   -1.68773683    1.70880594      18
