          18
Lattice="  24.8920   0.0000   0.0000   0.0000  24.8920   0.0000   0.0000   0.0000  24.8920 " ConfE="      -5932.3721" DelE="          0.0000"
Ni     0.01272913   -3.39966321    0.00137129       1
Co    -0.00111428    0.03364835   -3.53041781       2
Cr    -0.03242998    3.70514986   -0.01719224       3
Co     0.01168409    0.11283316    3.54367512       4
Co    -3.52541601    0.08053474   -0.04890585       5
Cr     3.54678282    0.04065604    0.09200789       6
Co    -1.77985334   -1.68117240    0.01894695       7
Co     1.81612288   -1.68692091    0.04384887       8
Cr    -1.67689441   -0.14523200   -1.82030572       9
Ni     1.73842501    0.02047676   -1.74918256      10
Cr     0.00001105   -1.67327477    1.83946752      11
Cr    -0.00244087    1.84071248   -1.78813454      12
Co    -0.03128485    1.90148029    1.73959455      13
Ni    -1.78193412    0.08553101    1.77896396      14
Cr     1.73053138    0.13276313    1.83046200      15
Cr    -1.77313318    1.81124624   -0.07434438      16
Ni     1.78661839    1.86228572    0.00979141      17
Cr     0.00000000    0.00000000    0.00000000      18
          18
Lattice="  24.8920   0.0000   0.0000   0.0000  24.8920   0.0000   0.0000   0.0000  24.8920 " ConfE="      -5931.8933" DelE="          0.4787"
Ni     0.00513376   -3.36108556    0.01430752       1
Co    -0.00026653    0.02725851   -3.46015205       2
Cr    -0.04697229    3.65757769   -0.03355020       3
Co     0.01198872    0.11380159    3.55826474       4
Co    -3.59151263    0.08484664   -0.02014585       5
Cr     3.63061189    0.08861131    0.10918694       6
Co    -1.93447398   -1.70280318    0.09453126       7
Co     1.92606931   -1.69786016    0.03332024       8
Cr    -1.91388983   -0.06129908   -1.85113705       9
Ni     1.90019299    0.08646968   -1.76524142      10
Cr     0.02018205   -1.61925676    1.79295896      11
Cr     0.02385078    1.78675613   -1.79069774      12
Co    -0.02372321    1.83334932    1.68476683      13
Ni    -1.75886892    0.07055185    1.74740670      14
Cr     1.66971240    0.09316656    1.71178678      15
Cr    -1.69871012    1.67989515   -0.12064495      16
Ni     1.78241213    1.83595852   -0.00865036      17
Cr    -0.03658384   -0.78649349   -0.76709962      18
          18
Lattice="  24.8920   0.0000   0.0000   0.0000  24.8920   0.0000   0.0000   0.0000  24.8920 " ConfE="      -5932.5620" DelE="         -0.1900"
Ni     0.01856940   -3.47035218    0.03621143       1
Co     0.00390573    0.05986085   -3.57735213       2
Cr    -0.03353235    3.70181745   -0.01810918       3
Co     0.01279069    0.11951540    3.56777326       4
Co    -3.55608821    0.09119217   -0.02909001       5
Cr     3.57922421    0.06495204    0.10131994       6
Co    -1.74669287   -1.63674015    0.01666725       7
Co     1.79901150   -1.66028425    0.05411979       8
Cr    -1.74657121    0.02739681   -1.75903749       9
Ni     1.77396817    0.07668270   -1.71680555      10
Cr     0.02979137   -1.59443571    1.71877234      11
Cr     0.00708332    1.75350716   -1.74452641      12
Co    -0.02162726    1.87735753    1.72260475      13
Ni    -1.74514658    0.09777370    1.74626959      14
Cr     1.69991991    0.13129039    1.80046380      15
Cr    -1.72933753    1.82160512   -0.05478189      16
Ni     1.77919648    1.85534917    0.02473684      17
Cr     0.04321670   -1.63480917   -1.69419106      18
