          18
Lattice="  24.8920   0.0000   0.0000   0.0000  24.8920   0.0000   0.0000   0.0000  24.8920 " ConfE="      -5947.0169" DelE="          0.0000"
Co     0.02108183    3.43992436    0.02900631       1
Ni     3.49740951   -0.04302054    0.00956133       2
Cr    -0.03700154   -3.64400780   -0.03184372       3
Co    -3.56634460   -0.05849863    0.01395289       4
Cr     0.04668073   -0.04741767   -3.58675499       5
Ni    -0.00572792   -0.04428475    3.56475558       6
Ni     0.01689829    1.72302451   -1.77271770       7
Cr     0.00989292    1.78757199    1.77740345       8
Ni     1.76443189   -0.02632549   -1.75852642       9
Co     1.71808597   -0.06265340    1.76658212      10
Cr    -1.85963875    1.72466753    0.02100698      11
Cr     1.72908823   -1.87187596   -0.01150090      12
Co    -1.78405542   -1.82156983    0.00758737      13
Cr    -1.77066407   -0.04043333   -1.80941037      14
Cr    -1.77001843   -0.05751487    1.76885712      15
Cr    -0.03820381   -1.83741544   -1.76287306      16
Cr    -0.03302929   -1.85768962    1.76062451      17
Ni     0.00000000    0.00000000    0.00000000      18
          18
Lattice="  24.8920   0.0000   0.0000   0.0000  24.8920   0.0000   0.0000   0.0000  24.8920 " ConfE="      -5946.2138" DelE="          0.8031"
Co     0.00437090    3.46784479    0.00588164       1
Ni     3.44167593   -0.02212857    0.01724665       2
Cr    -0.01579454   -3.67260993   -0.03648585       3
Co    -3.57729530   -0.04608858    0.01698414       4
Cr     0.03245874   -0.06070348   -3.67012987       5
Ni    -0.02789938   -0.05807188    3.62198840       6
Ni    -0.02015424    1.73612829   -1.93579783       7
Cr    -0.10348459    1.83820016    1.97655539       8
Ni     1.75991682   -0.06638797   -1.86927832       9
Co     1.74448556   -0.15446799    1.92883021      10
Cr    -1.71212596    1.69105634   -0.01194518      11
Cr     1.69446004   -1.79734800   -0.01937509      12
Co    -1.73163157   -1.78234641    0.00255540      13
Cr    -1.67314014   -0.03792473   -1.68550935      14
Cr    -1.68511759   -0.05414665    1.66517338      15
Cr    -0.02108788   -1.80079422   -1.72403202      16
Cr    -0.00709398   -1.82136072    1.70971076      17
Ni     0.97991282    1.06981043    0.08088359      18
          18
Lattice="  24.8920   0.0000   0.0000   0.0000  24.8920   0.0000   0.0000   0.0000  24.8920 " ConfE="      -5946.7302" DelE="          0.2867"
Co    -0.03764460    3.52455913    0.01404531       1
Ni     3.53231955   -0.06600258    0.01070661       2
Cr    -0.03085851   -3.69556291   -0.03984238       3
Co    -3.60349300   -0.05620933    0.01188989       4
Cr     0.03346465   -0.05197011   -3.61275754       5
Ni    -0.01462231   -0.06402629    3.56772856       6
Ni    -0.01148586    1.69762507   -1.76730994       7
Cr    -0.03903444    1.71521397    1.76639660       8
Ni     1.72121045   -0.06158743   -1.74684031       9
Co     1.66611052   -0.10043363    1.72015553      10
Cr    -1.78034386    1.70048205    0.00761388      11
Cr     1.70639225   -1.83870966   -0.01557319      12
Co    -1.75724750   -1.80085307   -0.00033392      13
Cr    -1.72677402   -0.05374716   -1.70470894      14
Cr    -1.72917239   -0.07298186    1.66504648      15
Cr    -0.04747991   -1.82414662   -1.70035958      16
Cr    -0.02858510   -1.83168119    1.68618565      17
Ni     1.72041484    1.72164468    0.00976379      18
