          18
Lattice="  24.8920   0.0000   0.0000   0.0000  24.8920   0.0000   0.0000   0.0000  24.8920 " ConfE="      -5934.7453" DelE="          0.0000"
Ni     3.56236867    0.04813856   -0.04983362       1
Co     0.01398110    0.05409206    3.46632813       2
Cr    -3.49882857   -0.00282967    0.05531884       3
Cr     0.10212051    0.02010242   -3.63445264       4
Co    -0.01339903    3.60672809   -0.06425460       5
Co     0.03153392   -3.48943719   -0.01548391       6
Ni    -1.75332448    1.76762583   -0.00401059       7
Ni    -1.73761698   -1.72624279   -0.01963881       8
Ni     1.78219625    0.03012140    1.71562751       9
Ni     1.77053384    1.83703755   -0.03408348      10
Ni     1.81023797    0.04217865   -1.81785325      11
Co    -0.02858574    1.82104618    1.76804769      12
Cr    -0.02972381   -1.75515248    1.81059364      13
Ni     0.01602666    1.80229711   -1.80906226      14
Cr     1.78813941   -1.77475060   -0.04226499      15
Co    -1.75359834   -0.00069907   -1.86324914      16
Cr     0.04726629   -1.73196596   -1.86855917      17
Ni     0.00000000    0.00000000    0.00000000      18
          18
Lattice="  24.8920   0.0000   0.0000   0.0000  24.8920   0.0000   0.0000   0.0000  24.8920 " ConfE="      -5934.3124" DelE="          0.4329"
Ni     3.55545155    0.04907099   -0.04653658       1
Co     0.00438810    0.06147968    3.44906261       2
Cr    -3.42625631   -0.01448976    0.07860757       3
Cr     0.09606955    0.01502903   -3.65249663       4
Co    -0.00634402    3.64767343   -0.08699995       5
Co     0.02912594   -3.52340542   -0.02939908       6
Ni    -1.75573521    1.85783427   -0.05330931       7
Ni    -1.78776885   -1.85246581   -0.07495759       8
Ni     1.73637882    0.02588493    1.69586321       9
Ni     1.72265893    1.82034234   -0.02358014      10
Ni     1.77091765    0.04446434   -1.79494486      11
Co    -0.00193662    1.99871308    1.80626411      12
Cr     0.00660918   -1.96536538    1.86060591      13
Ni     0.01888202    1.80724004   -1.81789277      14
Cr     1.68834114   -1.70834769   -0.03285527      15
Co    -1.71948188   -0.00496596   -1.81740519      16
Cr     0.03099998   -1.69666480   -1.81384189      17
Ni    -0.53507866   -0.06216355    0.69523947      18
          18
Lattice="  24.8920   0.0000   0.0000   0.0000  24.8920   0.0000   0.0000   0.0000  24.8920 " ConfE="      -5934.8571" DelE="         -0.1117"
Ni     3.56867430    0.04990437   -0.05144448       1
Co     0.04052447    0.06089347    3.52564407       2
Cr    -3.54966614    0.01812151   -0.03992313       3
Cr     0.10810942    0.01302593   -3.65097558       4
Co     0.00235727    3.63153319   -0.08676607       5
Co     0.02995316   -3.51702116   -0.02553302       6
Ni    -1.73069686    1.77681299   -0.05582982       7
Ni    -1.70641432   -1.70233641   -0.04729895       8
Ni     1.70592081    0.02742081    1.66495625       9
Ni     1.75221070    1.82182640   -0.04083372      10
Ni     1.79195283    0.04061880   -1.80134583      11
Co    -0.01261157    1.85556641    1.74501715      12
Cr    -0.00957672   -1.76575596    1.74983727      13
Ni     0.02550383    1.78400401   -1.80493655      14
Cr     1.73713188   -1.73834886   -0.05398394      15
Co    -1.72719578   -0.00001602   -1.84466886      16
Cr     0.05481768   -1.69851667   -1.82459620      17
Ni    -1.72979439    0.05531865    1.72641357      18
