          18
Lattice="  24.8920   0.0000   0.0000   0.0000  24.8920   0.0000   0.0000   0.0000  24.8920 " ConfE="      -5922.8589" DelE="          0.0000"
Ni    -0.14158171   -0.01897455   -3.52158032       1
Ni     3.50966823   -0.03661140   -0.01611134       2
Cr    -3.56507475   -0.05266324    0.01573547       3
Cr    -0.08863310    3.50112601    0.02615680       4
Co    -0.05057083   -3.55642164    0.02968809       5
Co    -0.03530155    0.00972532    3.59140887       6
Ni    -0.11384547    1.73230829   -1.79564936       7
Ni    -1.84141275    1.70493722   -0.01928706       8
Ni    -1.79440437   -1.73170859    0.01224295       9
Co    -0.04292468   -1.76968013   -1.74271819      10
Ni    -0.01651285   -1.75168683    1.79329265      11
Co    -0.01976887    1.76504638    1.78097185      12
Cr    -1.79396453    0.01280030    1.83252838      13
Cr     1.75685498   -0.02537703   -1.84472022      14
Cr     1.70516868    1.75466039   -0.09644260      15
Cr     1.70527876   -1.80099928   -0.04278684      16
Cr     1.75603018    0.10454120    1.85609734      17
Co     0.00000000    0.00000000    0.00000000      18
          18
Lattice="  24.8920   0.0000   0.0000   0.0000  24.8920   0.0000   0.0000   0.0000  24.8920 " ConfE="      -5921.5863" DelE="          1.2726"
Ni    -0.16387467   -0.01952250   -3.51801324       1
Ni     3.48005434   -0.04005624   -0.02508225       2
Cr    -3.46386866   -0.02319525   -0.03485798       3
Cr     0.06597091    3.55583227    0.04457425       4
Co    -0.03638702   -3.61526631    0.04422898       5
Co    -0.04766917   -0.00383478    3.61583599       6
Ni    -0.05053521    1.93559287   -1.90197357       7
Ni    -1.79318611    1.90158789    0.01922636       8
Ni    -1.80383569   -1.88726265    0.06171532       9
Co     0.00951887   -1.92916806   -1.77635166      10
Ni    -0.02425067   -1.72106742    1.74725384      11
Co    -0.02734855    1.74093341    1.78429562      12
Cr    -1.71695157    0.03465533    1.67844229      13
Cr     1.65168803   -0.06809081   -1.91290417      14
Cr     1.35934928    1.31607070   -0.07384354      15
Cr     1.63565393   -1.70969299   -0.05041869      16
Cr     1.72114235    0.03908141    1.91774860      17
Co    -1.06880166   -0.00988422   -1.10418947      18
          18
Lattice="  24.8920   0.0000   0.0000   0.0000  24.8920   0.0000   0.0000   0.0000  24.8920 " ConfE="      -5922.5070" DelE="          0.3519"
Ni    -0.08385540   -0.02139580   -3.57571425       1
Ni     3.55637761   -0.03498468   -0.00661356       2
Cr    -3.60946502   -0.03969137    0.03997174       3
Cr    -0.05471320    3.51714742    0.03463924       4
Co    -0.04151121   -3.55319453    0.03372137       5
Co    -0.03907028    0.01066091    3.61152229       6
Ni    -0.06376888    1.72178471   -1.76756916       7
Ni    -1.81676294    1.72155277   -0.00016134       8
Ni    -1.78078836   -1.72898423    0.04085824       9
Co    -0.00918129   -1.74019588   -1.70603815      10
Ni    -0.02499093   -1.70591727    1.77495331      11
Co    -0.01915010    1.71034272    1.75004084      12
Cr    -1.80252255    0.02437657    1.78268783      13
Cr     1.72081398   -0.07603525   -1.80699131      14
Cr     1.66947362    1.61987909   -0.06844332      15
Cr     1.69008011   -1.68748595    0.01873589      16
Cr     1.74746889    0.09263079    1.84110900      17
Co    -1.81481711   -0.03030806   -1.74616233      18
