          18
Lattice="  24.8920   0.0000   0.0000   0.0000  24.8920   0.0000   0.0000   0.0000  24.8920 " ConfE="      -5937.9053" DelE="          0.0000"
Ni     0.02180035   -0.02470941    3.41253851       1
Cr    -0.00283537    3.52240273   -0.08051928       2
Ni     0.03666265   -0.03975353   -3.70128866       3
Co     0.09606447   -3.58358996   -0.11999824       4
Ni     3.56932531   -0.01159549   -0.09743497       5
Cr    -3.47809940   -0.01984159   -0.11784591       6
Co     1.79217930   -0.00018534    1.70532539       7
Cr    -1.67443237    0.01699007    1.62684913       8
Ni     1.73075576    1.76143752   -0.04539524       9
Co    -1.69884758    1.74631358   -0.09904008      10
Cr     0.05364611   -1.88855483    1.73117447      11
Ni     0.04476735    1.75250510   -1.91969874      12
Ni     0.06794759   -1.78922491   -1.88021275      13
Cr     1.78807637   -1.75239817    0.00322449      14
Ni    -1.70277717   -1.80875626   -0.11303322      15
Ni     1.78750960   -0.01846115   -1.87043393      16
Ni    -1.73999528   -0.03806805   -1.90113378      17
Co     0.00000000    0.00000000    0.00000000      18
          18
Lattice="  24.8920   0.0000   0.0000   0.0000  24.8920   0.0000   0.0000   0.0000  24.8920 " ConfE="      -5937.4718" DelE="          0.4335"
Ni     0.01639444   -0.02180630    3.38730088       1
Cr    -0.03064849    3.42430435   -0.01005778       2
Ni     0.03983084   -0.02934571   -3.70687224       3
Co     0.10623704   -3.56586088   -0.11558045       4
Ni     3.62771782   -0.02566294   -0.12108868       5
Cr    -3.55577647   -0.04682557   -0.15459819       6
Co     1.95624699   -0.03551989    1.73223429       7
Cr    -1.92069405   -0.01115408    1.69577272       8
Ni     1.85875707    1.75952641   -0.10854741       9
Co    -1.85622038    1.77736682   -0.16532218      10
Cr     0.05010420   -1.79740990    1.70164730      11
Ni     0.03762972    1.73515655   -1.86623927      12
Ni     0.07403115   -1.74178899   -1.84740752      13
Cr     1.70167621   -1.62132750    0.04775793      14
Ni    -1.66468638   -1.73173197   -0.08864962      15
Ni     1.79899855   -0.00975931   -1.86167812      16
Ni    -1.74799838   -0.02375199   -1.88031204      17
Co    -0.05077769    0.79861178    0.90471749      18
          18
Lattice="  24.8920   0.0000   0.0000   0.0000  24.8920   0.0000   0.0000   0.0000  24.8920 " ConfE="      -5938.0442" DelE="         -0.1390"
Ni     0.02590101   -0.05072058    3.46257210       1
Cr     0.00674813    3.55093365   -0.11490142       2
Ni     0.04215537   -0.03788074   -3.71853869       3
Co     0.10169411   -3.59202801   -0.11777007       4
Ni     3.59571970   -0.02477970   -0.10731801       5
Cr    -3.51257668   -0.02347456   -0.13447896       6
Co     1.77102535   -0.06537338    1.64641882       7
Cr    -1.65367355    0.00557703    1.61092373       8
Ni     1.74932378    1.72736052   -0.09060399       9
Co    -1.69031913    1.69435460   -0.12849957      10
Cr     0.05996024   -1.82949443    1.71108625      11
Ni     0.05152259    1.74145530   -1.90519862      12
Ni     0.08134995   -1.77242381   -1.86794143      13
Cr     1.76986714   -1.73967958    0.00006095      14
Ni    -1.64415802   -1.74834118   -0.10184066      15
Ni     1.78888911   -0.02644461   -1.86702902      16
Ni    -1.72936180   -0.03932787   -1.90002835      17
Co     0.01933222    1.68808370    1.63723033      18
