          18
Lattice="  24.8920   0.0000   0.0000   0.0000  24.8920   0.0000   0.0000   0.0000  24.8920 " ConfE="      -5944.7496" DelE="          0.0000"
Cr    -3.43124196   -0.07726606    0.01657305       1
Co    -0.03162435   -3.47459361   -0.00360115       2
Co     0.05239084   -0.01723881   -3.58211953       3
Cr    -0.01945993    0.09114078    3.46346979       4
Co     3.56825610    0.02780883    0.00025484       5
Cr     0.02411500    3.50797747   -0.00480708       6
Ni    -1.74722958   -0.03481114   -1.75559223       7
Ni    -1.76002013    1.79859064   -0.03360765       8
Co     0.02790452   -1.76066051   -1.77523453       9
Co     0.00268315   -1.76662548    1.74259786      10
Co    -1.75343264   -0.01840365    1.72943177      11
Ni     1.78919697    0.02967776    1.76744179      12
Cr     1.81178431   -1.71594107    0.01774383      13
Cr     0.04389442    1.77033290   -1.81905770      14
Co     1.76904063    1.76985988   -0.02160822      15
Cr     1.72926940    0.00096563   -1.77894084      16
Co     0.01073819    1.80601994    1.74867453      17
Co     0.00000000    0.00000000    0.00000000      18
          18
Lattice="  24.8920   0.0000   0.0000   0.0000  24.8920   0.0000   0.0000   0.0000  24.8920 " ConfE="      -5944.0996" DelE="          0.6499"
Cr    -3.34653507   -0.11866928   -0.00015054       1
Co    -0.04594860   -3.38898667    0.00276152       2
Co     0.05730210    0.00126046   -3.66181230       3
Cr    -0.00992048    0.09572347    3.52005062       4
Co     3.55532436    0.01764099    0.00269138       5
Cr     0.00823891    3.53889663   -0.00688282       6
Ni    -1.74820848    0.03013507   -1.91857393       7
Ni    -1.71912365    1.72858586   -0.03515127       8
Co     0.04662788   -1.79511673   -1.94518208       9
Co     0.03906438   -1.81883681    1.93759873      10
Co    -1.75759198    0.01324985    1.88036109      11
Ni     1.72458303    0.00413666    1.74019687      12
Cr     1.75074875   -1.71073713    0.01826333      13
Cr     0.03762367    1.76150390   -1.80430536      14
Co     1.70673075    1.72109232   -0.03890576      15
Cr     1.61771914   -0.02940095   -1.71263768      16
Co     0.00322657    1.78318570    1.73936569      17
Co    -0.57373509   -0.69344595    0.00342689      18
          18
Lattice="  24.8920   0.0000   0.0000   0.0000  24.8920   0.0000   0.0000   0.0000  24.8920 " ConfE="      -5945.0659" DelE="         -0.3164"
Cr    -3.47782438    0.00872978   -0.01165398       1
Co     0.01998432   -3.53873859   -0.00297994       2
Co     0.06163114   -0.00889622   -3.60799164       3
Cr    -0.01737150    0.10343470    3.48766770       4
Co     3.58130194    0.02626459   -0.00073228       5
Cr     0.01956619    3.55422370   -0.00642870       6
Ni    -1.68764044    0.02003135   -1.76603164       7
Ni    -1.70741744    1.76666311   -0.03077418       8
Co     0.07445042   -1.71902281   -1.76101090       9
Co     0.03528679   -1.73986204    1.72746817      10
Co    -1.71443550    0.01045180    1.73858879      11
Ni     1.75945546    0.03117241    1.73092127      12
Cr     1.75221041   -1.69768967    0.00854487      13
Cr     0.07059108    1.77716773   -1.80355310      14
Co     1.71931313    1.73159470   -0.05321131      15
Cr     1.70652225    0.01199467   -1.74749612      16
Co     0.01816635    1.79429983    1.73458636      17
Co    -1.70534233   -1.73851826   -0.01995459      18
