          18
Lattice="  24.8920   0.0000   0.0000   0.0000  24.8920   0.0000   0.0000   0.0000  24.8920 " ConfE="      -5948.8696" DelE="          0.0000"
Ni     3.49808481   -0.02497138   -0.00877957       1
Ni    -0.02363678   -0.04566762   -3.53143767       2
Ni    -0.02105721   -0.03079057    3.55346913       3
Cr    -3.56223374   -0.03201578   -0.01845403       4
Co    -0.02266560    3.51020890    0.01974495       5
Cr    -0.00097310   -3.52784732   -0.01683810       6
Ni     1.76120086   -1.75702403   -0.02646096       7
Ni     0.00631410    1.70907256   -1.77759204       8
Ni     1.75933950   -0.03982500    1.80576231       9
Ni    -1.79712287   -0.02431684    1.78755022      10
Cr     1.66607423    1.71903825   -0.00798036      11
Ni    -1.81293463   -0.03087108   -1.78874792      12
Co    -0.01675456   -1.81380444   -1.76764808      13
Ni    -1.79527314   -1.79232308   -0.00694997      14
Cr    -0.00554731    1.74069274    1.76363606      15
Co    -0.03808993   -1.83441239    1.78884308      16
Cr    -1.75307534    1.75176596   -0.00646946      17
Co     0.00000000    0.00000000    0.00000000      18
          18
Lattice="  24.8920   0.0000   0.0000   0.0000  24.8920   0.0000   0.0000   0.0000  24.8920 " ConfE="      -5948.1130" DelE="          0.7566"
Ni     3.47254538   -0.04060660   -0.00590645       1
Ni    -0.02471108   -0.02868058   -3.50444110       2
Ni    -0.01643850   -0.02458724    3.55563583       3
Cr    -3.57956648   -0.03801267   -0.02908675       4
Co    -0.03078622    3.56651565    0.02793271       5
Cr    -0.03744249   -3.61589774    0.02159713       6
Ni     1.77924917   -1.91736394    0.06202940       7
Ni    -0.10225162    1.88901930   -1.84248560       8
Ni     1.71541015   -0.04159681    1.74228700       9
Ni    -1.75646661   -0.01943011    1.74646841      10
Cr     1.68103599    1.86014316    0.02991075      11
Ni    -1.76000208   -0.01824469   -1.75126333      12
Co    -0.06209383   -1.91226468   -1.78010550      13
Ni    -1.74974283   -1.77461489   -0.00481791      14
Cr    -0.00416363    1.71416863    1.71166041      15
Co    -0.03194220   -1.84003002    1.78612148      16
Cr    -1.70238749    1.72783390   -0.00707700      17
Co     0.96060966    0.03930205   -0.92190440      18
          18
Lattice="  24.8920   0.0000   0.0000   0.0000  24.8920   0.0000   0.0000   0.0000  24.8920 " ConfE="      -5948.6909" DelE="          0.1787"
Ni     3.53735019   -0.02693658    0.02332422       1
Ni    -0.04516897   -0.03580507   -3.55441974       2
Ni    -0.02161249   -0.02830226    3.56261762       3
Cr    -3.59890286   -0.04750657   -0.02087860       4
Co    -0.02650051    3.52719071    0.02758650       5
Cr    -0.01401066   -3.58037137    0.00230306       6
Ni     1.72084618   -1.77583811    0.02429262       7
Ni    -0.02600467    1.70590051   -1.73221356       8
Ni     1.72231991   -0.03115299    1.76519550       9
Ni    -1.77365432   -0.02189685    1.75945436      10
Cr     1.65375697    1.70095686   -0.00660704      11
Ni    -1.78329974   -0.03069623   -1.75283339      12
Co    -0.03052994   -1.81993600   -1.75776382      13
Ni    -1.76393046   -1.77675118   -0.00396369      14
Cr    -0.00761202    1.72611317    1.74258094      15
Co    -0.04744569   -1.83619583    1.79036827      16
Cr    -1.75002678    1.73604404    0.02106269      17
Co     1.72800966   -0.03952861   -1.70879498      18
