          18
Lattice="  24.8920   0.0000   0.0000   0.0000  24.8920   0.0000   0.0000   0.0000  24.8920 " ConfE="      -5945.0859" DelE="          0.0000"
Co    -3.41664391    0.05261383   -0.00760602       1
Co     0.05157180    0.03112689   -3.47202300       2
Cr     3.59771311   -0.02398780    0.05994618       3
Ni     0.08548028    0.02283284    3.56995383       4
Ni     0.05331085   -3.51072878    0.03689295       5
Ni     0.00046647    3.55697286    0.00268196       6
Cr    -1.74923879   -1.77267408    0.00155667       7
Cr    -1.75484316    1.70323810   -0.05042719       8
Co     0.02307719   -1.74006337   -1.73787266       9
Cr     0.00328281    1.73836853   -1.79145491      10
Ni    -1.73905448   -0.00890102    1.83353858      11
Cr     1.84186117    0.00491968   -1.74387507      12
Co     1.85057166   -0.00500697    1.78053784      13
Ni     0.05406288   -1.76529503    1.81399242      14
Ni     0.03809873    1.78405849    1.78473425      15
Cr     1.81281169   -1.71654044   -0.00357349      16
Ni     1.80572106    1.76844044    0.02073823      17
Ni     0.00000000    0.00000000    0.00000000      18
          18
Lattice="  24.8920   0.0000   0.0000   0.0000  24.8920   0.0000   0.0000   0.0000  24.8920 " ConfE="      -5943.9001" DelE="          1.1857"
Co    -3.42961971    0.04348610    0.00942821       1
Co     0.05389387    0.00658430   -3.46167655       2
Cr     3.48818309   -0.03001576    0.07587205       3
Ni     0.12247082    0.02141833    3.47375580       4
Ni     0.06684283   -3.64135772    0.05110007       5
Ni     0.02825485    3.68996164    0.02246796       6
Cr    -1.71410523   -1.94762175    0.08218113       7
Cr    -1.70351840    1.91788291    0.02783553       8
Co     0.11038127   -1.94823450   -1.77144391       9
Cr     0.10094492    1.89028896   -1.74287744      10
Ni    -1.66858946   -0.00954877    1.73763624      11
Cr     1.70702154    0.00203613   -1.66462851      12
Co     0.95886292   -0.04700321    0.84732874      13
Ni     0.00462936   -1.92204878    1.85242403      14
Ni     0.02440777    1.90973336    1.78293790      15
Cr     1.76848297   -1.85978734   -0.06354442      16
Ni     1.83142757    1.93671297    0.00245278      17
Ni    -1.09318019   -0.03000287   -1.11874839      18
          18
Lattice="  24.8920   0.0000   0.0000   0.0000  24.8920   0.0000   0.0000   0.0000  24.8920 " ConfE="      -5945.1582" DelE="         -0.0723"
Co    -3.48793494    0.03748298    0.02018583       1
Co     0.07338949    0.01487712   -3.52734468       2
Cr     3.55538508   -0.02654970    0.08036775       3
Ni     0.12006286    0.02933921    3.54962576       4
Ni     0.07126719   -3.51553218    0.04158625       5
Ni     0.02891753    3.56859604    0.02122362       6
Cr    -1.70864963   -1.79405594    0.03034086       7
Cr    -1.69562510    1.75782923    0.00813743       8
Co     0.06312738   -1.76784387   -1.74892562       9
Cr     0.07479426    1.77210144   -1.75360989      10
Ni    -1.73727075   -0.00598726    1.79765273      11
Cr     1.81847717    0.00824386   -1.77700523      12
Co     0.12421410   -0.02190931    0.03043897      13
Ni     0.08596083   -1.74633251    1.81490175      14
Ni     0.07517281    1.76690625    1.79169567      15
Cr     1.80235273   -1.66351581    0.02454023      16
Ni     1.82712986    1.75258647    0.05039270      17
Ni    -1.69892381    0.00975504   -1.73511798      18
