          18
Lattice="  24.8920   0.0000   0.0000   0.0000  24.8920   0.0000   0.0000   0.0000  24.8920 " ConfE="      -5937.2247" DelE="          0.0000"
Ni    -0.02105496    0.01772544    3.47952384       1
Ni    -0.03217557    3.60590195   -0.07450957       2
Ni    -0.01207099    0.00836817   -3.63442430       3
Co     3.48525989   -0.01006924   -0.07704837       4
Cr     0.00003113   -3.58701066   -0.01495240       5
Cr    -3.53679329    0.00277385   -0.05702863       6
Ni    -0.00149363   -1.75903786    1.74520016       7
Ni     1.73216468   -1.75859619   -0.02936829       8
Ni    -1.77792372   -1.79462678   -0.04786451       9
Co    -0.08662190    1.82012889    1.67652338      10
Co     1.70715509    1.76640157   -0.08993046      11
Co    -1.86428519   -0.00603722    1.71203314      12
Cr    -0.01607837   -1.77397377   -1.84492837      13
Co    -1.76628934    0.00028002   -1.84480463      14
Cr    -1.76098278    1.77794785   -0.01077845      15
Cr     1.73656465   -0.01408124   -1.84836086      16
Cr    -0.01936629    1.78177437   -1.77415964      17
Ni     0.00000000    0.00000000    0.00000000      18
          18
Lattice="  24.8920   0.0000   0.0000   0.0000  24.8920   0.0000   0.0000   0.0000  24.8920 " ConfE="      -5936.4487" DelE="          0.7759"
Ni    -0.01254344    0.00296975    3.44153151       1
Ni    -0.04120990    3.67103167   -0.10365481       2
Ni     0.02069232    0.00501575   -3.62529892       3
Co     3.44938186   -0.01561625   -0.06832224       4
Cr    -0.04043907   -3.66884352   -0.02986945       5
Cr    -3.53516964    0.00088089   -0.04203421       6
Ni    -0.04737532   -1.90134805    1.76052109       7
Ni     1.73739484   -1.92688586   -0.06008554       8
Ni    -1.74630569   -1.78782789   -0.03552830       9
Co    -0.15816004    1.97241610    1.68763608      10
Co     1.73249511    1.93219058   -0.14684026      11
Co    -1.78547489    0.00650526    1.67362310      12
Cr    -0.00800544   -1.70649172   -1.76484884      13
Co    -1.70665869    0.00234609   -1.79520781      14
Cr    -1.71461238    1.74088298   -0.00434309      15
Cr     1.69500964   -0.00678623   -1.67236811      16
Cr    -0.00229517    1.72725512   -1.70047150      17
Ni     0.99994123    0.04997909    0.98573150      18
          18
Lattice="  24.8920   0.0000   0.0000   0.0000  24.8920   0.0000   0.0000   0.0000  24.8920 " ConfE="      -5936.9708" DelE="          0.2539"
Ni    -0.04363795    0.02203045    3.51808163       1
Ni    -0.03560506    3.61253097   -0.07867445       2
Ni    -0.01647305    0.01529846   -3.66956516       3
Co     3.52589882   -0.00246636   -0.11349136       4
Cr    -0.01258228   -3.61681544   -0.02292173       5
Cr    -3.55362504    0.00349932   -0.05412690       6
Ni    -0.03804980   -1.74440413    1.71568111       7
Ni     1.66428851   -1.72322084   -0.07617149       8
Ni    -1.75405000   -1.76796341   -0.05525777       9
Co    -0.09596356    1.78915884    1.63668375      10
Co     1.66722000    1.73833446   -0.12633010      11
Co    -1.82053215    0.01663783    1.67746863      12
Cr    -0.04374214   -1.71659336   -1.84378707      13
Co    -1.72389914    0.00741523   -1.81437030      14
Cr    -1.73198652    1.73407460    0.00009040      15
Cr     1.69050782    0.00359229   -1.80862887      16
Cr    -0.03726305    1.72625869   -1.74316522      17
Ni     1.69158853    0.02617868    1.67493923      18
