          18
Lattice="  24.8920   0.0000   0.0000   0.0000  24.8920   0.0000   0.0000   0.0000  24.8920 " ConfE="      -5939.9040" DelE="          0.0000"
Ni     0.02049753    0.01291089   -3.51001915       1
Cr     3.47832677    0.01361209   -0.03265567       2
Cr     0.01566504    0.01961499    3.50577105       3
Ni    -3.57573836    0.00111202    0.04853428       4
Ni    -0.03912147   -3.54034380    0.01308300       5
Cr    -0.01567351    3.58335919    0.01780678       6
Co    -0.00863582   -1.71391695   -1.73658104       7
Co     0.02511537    1.78862845   -1.74466012       8
Ni     1.76803598   -1.76604262   -0.02426311       9
Cr     1.72603319    1.72407927   -0.08613061      10
Cr    -1.80870373    0.00181741   -1.72467125      11
Co     1.74951354    0.03774732    1.76598669      12
Co    -1.76207874    0.00513485    1.77693552      13
Co    -1.79175234   -1.76098126    0.02865818      14
Co    -1.77003648    1.80016576    0.00612916      15
Cr     0.00089707   -1.79250589    1.78284659      16
Cr    -0.05795763    1.80866961    1.75059002      17
Cr     0.00000000    0.00000000    0.00000000      18
          18
Lattice="  24.8920   0.0000   0.0000   0.0000  24.8920   0.0000   0.0000   0.0000  24.8920 " ConfE="      -5939.2721" DelE="          0.6319"
Ni    -0.00062055    0.01586022   -3.50633031       1
Cr     3.53106618   -0.00109449   -0.02127784       2
Cr     0.03940427    0.01875224    3.50703686       3
Ni    -3.58754745   -0.00010753    0.04178231       4
Ni    -0.05069314   -3.57043393    0.02913835       5
Cr    -0.03546796    3.64090176    0.05631267       6
Co    -0.03108571   -1.80663952   -1.74700377       7
Co    -0.04932374    1.93368830   -1.78531655       8
Ni     1.78207328   -1.87662612    0.01391743       9
Cr     1.77721372    1.90873495    0.02237228      10
Cr    -1.76693044    0.00745493   -1.69208763      11
Co     1.72691906    0.02772091    1.62942989      12
Co    -1.74829400    0.00387653    1.74694534      13
Co    -1.73818291   -1.71596994   -0.00210442      14
Co    -1.72773778    1.76355827   -0.02680267      15
Cr    -0.03079476   -1.63950377    1.67241315      16
Cr    -0.06192076    1.62422569    1.58512651      17
Cr     1.06882518    0.08086455   -1.09594012      18
          18
Lattice="  24.8920   0.0000   0.0000   0.0000  24.8920   0.0000   0.0000   0.0000  24.8920 " ConfE="      -5939.8586" DelE="          0.0453"
Ni    -0.03391961    0.00824094   -3.58156412       1
Cr     3.52621943    0.00886033    0.00131831       2
Cr     0.02252511    0.01340347    3.54049289       3
Ni    -3.58164904    0.00138873    0.04985201       4
Ni    -0.05143378   -3.55168170    0.03143403       5
Cr    -0.01326615    3.58630118    0.02698203       6
Co    -0.04817951   -1.69825283   -1.71048965       7
Co     0.00015756    1.78285189   -1.73424890       8
Ni     1.72628419   -1.77029790    0.00872076       9
Cr     1.69210017    1.73039235   -0.01074260      10
Cr    -1.74050047   -0.00592725   -1.67730683      11
Co     1.70147520    0.03848586    1.69442704      12
Co    -1.72447940   -0.00158011    1.75424568      13
Co    -1.77387430   -1.73852357    0.03072423      14
Co    -1.73153364    1.77074235    0.00306927      15
Cr    -0.04620546   -1.71170398    1.76732399      16
Cr    -0.07419440    1.71715903    1.69717939      17
Cr     1.69737208    0.00028184   -1.77429264      18
