          18
Lattice="  24.8920   0.0000   0.0000   0.0000  24.8920   0.0000   0.0000   0.0000  24.8920 " ConfE="      -5923.1914" DelE="          0.0000"
Cr    -3.61008502    0.07076135   -0.03365362       1
Co    -0.00683763   -3.38328199    0.08069707       2
Co     3.61594273    0.07336875    0.04670366       3
Cr    -0.01256632    3.64543858    0.01674742       4
Ni    -0.01267631    0.06486436   -3.49404351       5
Cr    -0.04867736    0.11375492    3.56536152       6
Cr    -1.79278196    0.04612311   -1.68812135       7
Co    -1.76602814    0.05197690    1.71309469       8
Co     0.00325836   -1.68006027   -1.69098501       9
Cr    -0.04526079   -1.70843147    1.73154959      10
Cr    -1.80039603    1.87397795    0.02089852      11
Co     1.81673122   -1.68387292    0.05353978      12
Ni     1.77723393    1.85809104    0.05356684      13
Co    -0.00162709    1.85763243   -1.73930666      14
Co    -0.03914002    1.84102743    1.79450630      15
Co     1.80875797    0.09364347   -1.73201904      16
Ni     1.79936376    0.09235318    1.81264707      17
Cr     0.00000000    0.00000000    0.00000000      18
          18
Lattice="  24.8920   0.0000   0.0000   0.0000  24.8920   0.0000   0.0000   0.0000  24.8920 " ConfE="      -5922.4554" DelE="          0.7361"
Cr    -3.59235732    0.07537755   -0.01113902       1
Co     0.00905880   -3.39506333    0.06984407       2
Co     3.60559702    0.06949921    0.05382713       3
Cr    -0.02519425    3.61010466    0.01318574       4
Ni    -0.00137044    0.07990585   -3.55497887       5
Cr    -0.03401358    0.15557840    3.64609852       6
Cr    -1.79444572    0.11251368   -1.83064161       7
Co    -1.77297398    0.08164955    1.83511434       8
Co     0.10002866   -1.71666274   -1.86002422       9
Cr     0.05561084   -1.70720366    1.94557145      10
Cr    -1.76885152    1.79026947    0.02908054      11
Co     1.70717563   -1.64006247    0.06315529      12
Ni     1.74004283    1.82806622    0.04734131      13
Co    -0.02190423    1.79276923   -1.71204993      14
Co    -0.06143614    1.79868885    1.77053173      15
Co     1.76828513    0.08941203   -1.72383143      16
Ni     1.75718054    0.09574903    1.81136670      17
Cr    -0.91037464   -0.96814218   -0.01680891      18
          18
Lattice="  24.8920   0.0000   0.0000   0.0000  24.8920   0.0000   0.0000   0.0000  24.8920 " ConfE="      -5922.9699" DelE="          0.2215"
Cr    -3.64607478    0.10341960   -0.02280360       1
Co     0.01087240   -3.44382117    0.06783222       2
Co     3.62539357    0.07854666    0.05153073       3
Cr    -0.01567538    3.63821908    0.01460575       4
Ni     0.00247098    0.07327048   -3.53090743       5
Cr    -0.03630732    0.13493590    3.60259457       6
Cr    -1.70932367    0.09463956   -1.70070151       7
Co    -1.74227649    0.09103446    1.74293703       8
Co     0.02533220   -1.64277687   -1.68502618       9
Cr     0.02066333   -1.61872068    1.73848722      10
Cr    -1.75182809    1.79052874    0.03244933      11
Co     1.72199272   -1.63312518    0.06510463      12
Ni     1.75636649    1.84556640    0.04642546      13
Co     0.00518792    1.83238114   -1.72070871      14
Co    -0.03913427    1.83694267    1.78418440      15
Co     1.79755855    0.10964083   -1.73493704      16
Ni     1.78841594    0.11634104    1.80793610      17
Cr    -1.71614609   -1.60941808    0.02794272      18
