          18
Lattice="  24.8920   0.0000   0.0000   0.0000  24.8920   0.0000   0.0000   0.0000  24.8920 " ConfE="      -5940.8240" DelE="          0.0000"
Ni     0.00281258    3.50541462   -0.00430128       1
Ni     3.56907047   -0.00449013   -0.02371680       2
Ni     0.01145849   -3.55914190    0.00959689       3
Co    -3.54597352    0.00386312   -0.00196179       4
Cr     0.03241109    0.06263932    3.55189231       5
Cr    -0.00243040   -0.03765941   -3.59573784       6
Ni     1.81041781    0.03062358    1.71949079       7
Ni     1.79121729   -0.00774443   -1.76455104       8
Ni     0.04298001    1.75479988   -1.74483934       9
Co     0.01804018    1.73845444    1.72547898      10
Ni    -1.78732244   -0.00720818    1.79961539      11
Co     1.77798747   -1.79236983   -0.00234319      12
Cr    -1.79598072   -1.75508457   -0.02499914      13
Cr     0.03733063   -1.74117016    1.75178805      14
Co     0.00742779   -1.80270852   -1.80451655      15
Cr    -1.85121172    1.75603674   -0.00417498      16
Co    -1.77503964    0.00325824   -1.79209876      17
Cr     0.00000000    0.00000000    0.00000000      18
          18
Lattice="  24.8920   0.0000   0.0000   0.0000  24.8920   0.0000   0.0000   0.0000  24.8920 " ConfE="      -5939.7460" DelE="          1.0780"
Ni    -0.02054888    3.44346688   -0.01180670       1
Ni     3.48485899    0.01247220   -0.01249085       2
Ni     0.02219870   -3.53729415    0.00944424       3
Co    -3.49388835   -0.01452263    0.00906656       4
Cr     0.02324118    0.05370663    3.70926823       5
Cr    -0.01803056   -0.06179891   -3.73657748       6
Ni     1.82849096    0.01469563    1.92466857       7
Ni     1.76739809   -0.06180594   -1.91776773       8
Ni    -0.07438419    1.74070536   -1.93012671       9
Co    -0.01891772    1.77177554    1.87192169      10
Ni    -1.73123041    0.02871242    1.86186326      11
Co     1.66141337   -1.66951029    0.02269363      12
Cr    -1.27044591   -1.30860394   -0.05899328      13
Cr     0.10705979   -1.65461329    1.77457370      14
Co     0.03357758   -1.78618984   -1.88775010      15
Cr    -1.78716033    1.67989161   -0.00309356      16
Co    -1.76791587    0.01778268   -1.85975224      17
Cr     0.93060027    0.92022176   -0.00241211      18
          18
Lattice="  24.8920   0.0000   0.0000   0.0000  24.8920   0.0000   0.0000   0.0000  24.8920 " ConfE="      -5940.9449" DelE="         -0.1210"
Ni    -0.03903941    3.53067602   -0.00389453       1
Ni     3.59397991   -0.03260513   -0.01268638       2
Ni     0.01780028   -3.57654059    0.00571012       3
Co    -3.57727725   -0.00125342    0.00191858       4
Cr     0.03033065    0.05545425    3.58305625       5
Cr    -0.00247872   -0.04142438   -3.61110558       6
Ni     1.77746473   -0.00328657    1.74207076       7
Ni     1.77487381   -0.03557485   -1.76684579       8
Ni     0.00297943    1.68669987   -1.71280901       9
Co    -0.00261846    1.71475051    1.71223565      10
Ni    -1.75423006   -0.01731727    1.77520985      11
Co     1.73182071   -1.74362022    0.01281200      12
Cr    -1.69805635   -1.65984153   -0.04137381      13
Cr     0.03291271   -1.73068607    1.70697091      14
Co     0.00982413   -1.80079876   -1.79172884      15
Cr    -1.84131163    1.71030413   -0.00134300      16
Co    -1.76382607   -0.01614449   -1.75979295      17
Cr     1.81679003    1.76710731   -0.00075574      18
