          18
Lattice="  24.8920   0.0000   0.0000   0.0000  24.8920   0.0000   0.0000   0.0000  24.8920 " ConfE="      -5926.0906" DelE="          0.0000"
Ni     0.06796433   -3.65918511    0.04114810       1
Co     0.00607727   -0.03022786   -3.52417225       2
Co     0.08163617    3.48008969    0.01673339       3
Co     0.06132936   -0.10077008    3.58450454       4
Co    -3.49374874   -0.03706589    0.01500945       5
Cr     3.62262855   -0.05140307    0.04800748       6
Ni    -1.69487818    1.77536674   -0.03490635       7
Ni     1.82173170    1.73824783    0.12550373       8
Co    -1.69118394    0.00636263   -1.75778534       9
Cr     1.61431879    0.21724934   -1.78848275      10
Cr     0.03790307   -1.82183492   -1.73242408      11
Cr     0.02962952   -1.86873819    1.81390736      12
Co    -1.72616124   -1.81033420    0.02357011      13
Cr     1.81910811   -1.85129144   -0.00386566      14
Cr    -0.03736297    1.76688019    1.88698037      15
Cr    -1.75658853   -0.01289990    1.79392774      16
Cr     1.83788149   -0.11052911    1.88121539      17
Cr     0.00000000    0.00000000    0.00000000      18
          18
Lattice="  24.8920   0.0000   0.0000   0.0000  24.8920   0.0000   0.0000   0.0000  24.8920 " ConfE="      -5925.5604" DelE="          0.5302"
Ni     0.07330864   -3.66500313    0.04028487       1
Co     0.01463761   -0.04320986   -3.42736447       2
Co     0.09089932    3.38233830    0.00383531       3
Co     0.02910065   -0.08517805    3.62693709       4
Co    -3.56519802   -0.04120109    0.03509133       5
Cr     3.71365559   -0.05760438    0.12439412       6
Ni    -1.86709788    1.81752721    0.01275724       7
Ni     2.00398503    1.73932134    0.16947865       8
Co    -1.83877878   -0.02176614   -1.74768060       9
Cr     1.94880781    0.05573747   -1.78516254      10
Cr     0.02104106   -1.78855494   -1.68887295      11
Cr    -0.07568436   -1.84691012    1.77442073      12
Co    -1.67038604   -1.72349671    0.00364920      13
Cr     1.73876575   -1.72655121    0.03090682      14
Cr    -0.01074604    1.80610508    1.85790941      15
Cr    -1.61503739    0.05840732    1.67973511      16
Cr     1.57500607   -0.05759903    1.80899316      17
Cr     0.05255133    0.72827104   -0.74007001      18
          18
Lattice="  24.8920   0.0000   0.0000   0.0000  24.8920   0.0000   0.0000   0.0000  24.8920 " ConfE="      -5926.3545" DelE="         -0.2639"
Ni     0.06383268   -3.62383563    0.05212985       1
Co     0.01891271   -0.06528633   -3.55062552       2
Co     0.07719264    3.47835644    0.06143545       3
Co     0.06159820   -0.12763011    3.61224071       4
Co    -3.56265233   -0.03605830    0.02257732       5
Cr     3.70475708   -0.04040921    0.06955403       6
Ni    -1.72193064    1.71982261    0.02177134       7
Ni     1.84118371    1.68393816    0.12196132       8
Co    -1.73458780   -0.02217881   -1.72590156       9
Cr     1.84218514    0.00955569   -1.74082679      10
Cr     0.01900361   -1.57997215   -1.53004981      11
Cr     0.07213656   -1.56703730    1.55249635      12
Co    -1.75831142   -1.77055903    0.04238178      13
Cr     1.88557136   -1.83119318   -0.02002495      14
Cr    -0.00103165    1.56986267    1.78223082      15
Cr    -1.79899007   -0.03492813    1.80013969      16
Cr     1.90905814   -0.08194766    1.88800281      17
Cr     0.06402458    1.61096916   -1.63553690      18
