          18
Lattice="  24.8920   0.0000   0.0000   0.0000  24.8920   0.0000   0.0000   0.0000  24.8920 " ConfE="      -5938.2725" DelE="          0.0000"
Ni     0.06869843   -0.04281950    3.61838753       1
Ni     0.01769110   -3.53646616    0.07833140       2
Ni     0.01590095   -0.07161238   -3.49783928       3
Cr     3.60691439   -0.10663695    0.09500805       4
Cr     0.05786428    3.46411255    0.07084413       5
Cr    -3.47865905   -0.03555570    0.08980263       6
Ni     0.05861228    1.67692964    1.82023599       7
Ni     1.82482883    1.66283807    0.09842782       8
Ni     0.05435815   -1.74897950    1.82577685       9
Ni     1.80922272   -1.74006678    0.09111881      10
Ni    -1.76441364   -0.05554930   -1.72980705      11
Ni     1.82356994   -0.07902888   -1.72907951      12
Co    -1.80565547   -0.02610294    1.82720891      13
Co    -1.74066086    1.76106212    0.04345163      14
Cr     0.02329588    1.68724929   -1.65528044      15
Co    -1.77264720   -1.80032570    0.08524033      16
Co    -0.00300599   -1.83746332   -1.75269329      17
Co     0.00000000    0.00000000    0.00000000      18
          18
Lattice="  24.8920   0.0000   0.0000   0.0000  24.8920   0.0000   0.0000   0.0000  24.8920 " ConfE="      -5937.1355" DelE="          1.1369"
Ni     0.08016993   -0.04322150    3.52280990       1
Ni     0.01575185   -3.61008272    0.06405599       2
Ni     0.02312320   -0.07636551   -3.48394579       3
Cr     3.48873701   -0.10122496    0.16639352       4
Cr     0.04713495    3.56049445    0.05270976       5
Cr    -3.49576774   -0.04606188    0.11770521       6
Ni     0.01596891    1.88439248    1.86693345       7
Ni     1.84203590    1.86720531    0.03732764       8
Ni     0.00931801   -1.93210886    1.86377079       9
Ni     1.84266128   -1.91132462    0.04164736      10
Ni    -1.68160855   -0.07136203   -1.63326565      11
Ni     1.77068804   -0.06824050   -1.63935773      12
Co    -1.72166841   -0.03797237    1.77802381      13
Co    -1.67014368    1.74754386    0.05522131      14
Cr     0.01182943    1.71300979   -1.62981843      15
Co    -1.72686249   -1.82685798    0.09292529      16
Co     0.01342630   -1.86999751   -1.74335673      17
Co     0.79412785   -0.01537283    0.81908691      18
          18
Lattice="  24.8920   0.0000   0.0000   0.0000  24.8920   0.0000   0.0000   0.0000  24.8920 " ConfE="      -5938.1321" DelE="          0.1403"
Ni     0.05453349   -0.04695094    3.62772681       1
Ni     0.01368687   -3.57204127    0.07339411       2
Ni     0.01618636   -0.07163926   -3.50223450       3
Cr     3.60279854   -0.09239523    0.09797386       4
Cr     0.05141575    3.52212280    0.06106952       5
Cr    -3.50896129   -0.03382815    0.09042071       6
Ni     0.03900159    1.66253908    1.78476367       7
Ni     1.77312405    1.68925170    0.06020237       8
Ni     0.03253707   -1.76362171    1.80427459       9
Ni     1.79049051   -1.77626748    0.05733378      10
Ni    -1.70805975   -0.06267415   -1.67621127      11
Ni     1.77469498   -0.06644731   -1.68213061      12
Co    -1.79349832   -0.03256413    1.80324434      13
Co    -1.68591701    1.73331067    0.02325911      14
Cr    -0.00245009    1.73315450   -1.68825947      15
Co    -1.75070154   -1.79930136    0.08594703      16
Co     0.00159048   -1.84937042   -1.75025676      17
Co     1.86219355   -0.06583856    1.79626395      18
