          18
Lattice="  24.8920   0.0000   0.0000   0.0000  24.8920   0.0000   0.0000   0.0000  24.8920 " ConfE="      -5924.2740" DelE="          0.0000"
Cr    -3.42541829    0.16257447   -0.08409013       1
Cr    -0.13432771    3.46980680    0.00345709       2
Cr     3.57889669    0.00326070    0.01076036       3
Ni     0.02474788   -3.56624614   -0.00828346       4
Co    -0.00507599   -0.02267400    3.54974352       5
Ni    -0.02636677    0.01023332   -3.55475167       6
Ni    -1.76106692   -0.00089354    1.74243134       7
Co    -1.78433012    0.02047339   -1.70821299       8
Co    -0.06302566    1.79737368    1.74179162       9
Ni    -0.03953131    1.77628004   -1.76009133      10
Cr    -1.78194181   -1.81280235   -0.04891342      11
Ni     1.77032122    1.74666304    0.01296915      12
Cr     1.83683993   -1.75848540    0.04885832      13
Ni    -0.00011045   -1.78154158    1.76280889      14
Co     0.05585661   -1.79905949   -1.77224696      15
Cr     1.76280726   -0.04395479    1.82857157      16
Ni     1.78837729   -0.03030819   -1.76677904      17
Ni     0.00000000    0.00000000    0.00000000      18
          18
Lattice="  24.8920   0.0000   0.0000   0.0000  24.8920   0.0000   0.0000   0.0000  24.8920 " ConfE="      -5923.7363" DelE="          0.5377"
Cr    -3.31675860    0.18072290   -0.09492883       1
Cr    -0.14735699    3.42063362   -0.03231299       2
Cr     3.59499802    0.00877755    0.00172565       3
Ni     0.01374556   -3.56842241   -0.00685048       4
Co     0.00294390   -0.02558371    3.60548293       5
Ni    -0.01936105   -0.00121358   -3.60532293       6
Ni    -1.78659598   -0.05233457    1.90995271       7
Co    -1.83684262    0.01184111   -1.89067661       8
Co    -0.03198523    1.83145606    1.92816280       9
Ni     0.00217500    1.81117817   -1.92770915      10
Cr    -1.71414980   -1.73287671   -0.07693922      11
Ni     1.70382653    1.72214913    0.01089645      12
Cr     1.75164121   -1.68223827    0.04804033      13
Ni    -0.01312466   -1.74923053    1.76139323      14
Co     0.01210168   -1.74039972   -1.72887437      15
Cr     1.70426731   -0.01955756    1.79541493      16
Ni     1.75384712   -0.01508901   -1.75877460      17
Ni    -0.61056452    0.62300908    0.00310908      18
          18
Lattice="  24.8920   0.0000   0.0000   0.0000  24.8920   0.0000   0.0000   0.0000  24.8920 " ConfE="      -5924.4224" DelE="         -0.1483"
Cr    -3.55848226   -0.00422264   -0.06348423       1
Cr    -0.03148956    3.54980766    0.00744391       2
Cr     3.60770515    0.00076151    0.00892924       3
Ni     0.02914584   -3.58965772   -0.00687343       4
Co    -0.00651752   -0.03591592    3.57195225       5
Ni    -0.02101330    0.00201010   -3.56776115       6
Ni    -1.73891912   -0.03086793    1.72446119       7
Co    -1.74135615   -0.03704616   -1.69153455       8
Co    -0.01309032    1.75070678    1.77199669       9
Ni    -0.00315593    1.75907619   -1.77292119      10
Cr    -1.71996609   -1.76340211   -0.08233283      11
Ni     1.73375078    1.69880471    0.02135022      12
Cr     1.81063425   -1.72571716    0.04625682      13
Ni     0.01475225   -1.74536989    1.72076296      14
Co     0.05932965   -1.78072822   -1.72040042      15
Cr     1.77158062   -0.05050208    1.80078154      16
Ni     1.77127156   -0.03468441   -1.73566638      17
Ni    -1.73401857    1.74453868   -0.01254488      18
