          18
Lattice="  24.8920   0.0000   0.0000   0.0000  24.8920   0.0000   0.0000   0.0000  24.8920 " ConfE="      -5950.6355" DelE="          0.0000"
Cr    -3.31412405    0.03795765    0.07593727       1
Ni     0.07359211    0.01913794    3.51946832       2
Ni     3.63892765    0.03903625    0.01698185       3
Co     0.08247833    0.03453780   -3.57765569       4
Co     0.06414953   -3.49896683   -0.01488604       5
Co     0.09960632    3.55792906   -0.01728680       6
Co    -1.66280206   -1.66066972    0.01450473       7
Co    -1.66821388    1.77098462    0.05676562       8
Co     0.09512399   -1.69374161    1.74558154       9
Co     0.09642333    1.79876442    1.76339009      10
Co    -1.68009141    0.04673510   -1.82320671      11
Ni     1.86004189    0.04302102    1.78076130      12
Co     1.85134167    0.03030123   -1.77963513      13
Co     0.07532543   -1.73790848   -1.80882108      14
Co     0.07393695    1.79749589   -1.78289470      15
Ni     1.84819229   -1.74135029    0.00471493      16
Co     1.84638189    1.79111475   -0.00868846      17
Cr     0.00000000    0.00000000    0.00000000      18
          18
Lattice="  24.8920   0.0000   0.0000   0.0000  24.8920   0.0000   0.0000   0.0000  24.8920 " ConfE="      -5949.6913" DelE="          0.9442"
Cr    -3.42474552    0.04123196    0.01860711       1
Ni     0.07239905    0.01912321    3.54121979       2
Ni     3.62246420    0.04041188    0.03813583       3
Co     0.06949870    0.03736045   -3.56656104       4
Co     0.07076098   -3.57301860   -0.02291740       5
Co     0.11407567    3.63122558   -0.01591581       6
Co    -1.66196786   -1.80290415   -0.05086559       7
Co    -1.67040198    1.90408162   -0.00576161       8
Co     0.11237979   -1.79114049    1.77292572       9
Co     0.10981480    1.88318977    1.77493559      10
Co    -1.65221557    0.04462472   -1.66235093      11
Ni     1.77674193    0.04543519    1.76593427      12
Co     1.86250461    0.03683918   -1.77652147      13
Co     0.06744092   -1.71669682   -1.78649437      14
Co     0.09004977    1.76163446   -1.71932977      15
Ni     1.77405617   -1.70501897    0.00350400      16
Co     1.80766681    1.78208769    0.01505519      17
Cr    -1.07084378    0.02451578    1.14441128      18
          18
Lattice="  24.8920   0.0000   0.0000   0.0000  24.8920   0.0000   0.0000   0.0000  24.8920 " ConfE="      -5949.9795" DelE="          0.6560"
Cr    -3.45901139    0.02330034    0.00006036       1
Ni     0.10118310    0.02188932    3.56602911       2
Ni     3.64320647    0.03919716    0.02614797       3
Co     0.09258273    0.03681012   -3.59930739       4
Co     0.06787775   -3.53892061   -0.02183577       5
Co     0.10851046    3.59602712   -0.01163442       6
Co    -1.63452904   -1.65707864   -0.00969920       7
Co    -1.63784074    1.78219539    0.00977560       8
Co     0.09267584   -1.69481608    1.74558624       9
Co     0.10623318    1.81245576    1.75690342      10
Co    -1.64841099    0.04815512   -1.75623186      11
Ni     1.82062505    0.05068866    1.76410339      12
Co     1.85937409    0.03520958   -1.77550279      13
Co     0.08007773   -1.72843522   -1.81003142      14
Co     0.10351848    1.77371821   -1.75226573      15
Ni     1.81023759   -1.71562063   -0.00197401      16
Co     1.84526835    1.79445468   -0.00490033      17
Cr    -1.58800134    0.05861019    1.66098228      18
