          18
Lattice="  24.8920   0.0000   0.0000   0.0000  24.8920   0.0000   0.0000   0.0000  24.8920 " ConfE="      -5926.0638" DelE="          0.0000"
Ni    -0.04928580    3.43380995    0.07118786       1
Co     3.42717478   -0.08585781    0.05797647       2
Cr    -0.10972642   -3.66993405    0.06844729       3
Cr    -3.62970869   -0.08486082    0.04609918       4
Cr    -0.08675789   -0.07189155   -3.45161262       5
Cr    -0.14092527   -0.06466620    3.66670241       6
Co    -0.07585628    1.64385254   -1.70213140       7
Co    -0.04740096    1.67126911    1.82357866       8
Co     1.67311178   -0.07778883   -1.70440326       9
Ni     1.69801182   -0.06613229    1.86316058      10
Co    -1.88162585    1.70075848    0.04459678      11
Cr     1.67149960   -1.85886523    0.04250457      12
Co    -1.84439445   -1.83642437    0.04857495      13
Cr    -1.85118016   -0.05321199   -1.70732999      14
Ni    -1.85072545   -0.04231695    1.78359526      15
Co    -0.10528247   -1.89279721   -1.72448047      16
Cr    -0.12380331   -1.84633753    1.81593455      17
Cr     0.00000000    0.00000000    0.00000000      18
          18
Lattice="  24.8920   0.0000   0.0000   0.0000  24.8920   0.0000   0.0000   0.0000  24.8920 " ConfE="      -5925.5086" DelE="          0.5551"
Ni    -0.05897351    3.43098985    0.07966262       1
Co     3.37532620   -0.08281849    0.06453801       2
Cr    -0.10173608   -3.63745404    0.07339808       3
Cr    -3.60223973   -0.06593657    0.02992387       4
Cr    -0.12958745   -0.10202124   -3.55305766       5
Cr    -0.18118705   -0.07899311    3.72480712       6
Co    -0.13823578    1.68623685   -1.88450360       7
Co    -0.06343817    1.67400060    1.91519366       8
Co     1.66995309   -0.13079474   -1.84956172       9
Ni     1.70638189   -0.09752979    1.99222660      10
Co    -1.78090814    1.65691845    0.02039506      11
Cr     1.58667405   -1.74849209    0.02647991      12
Co    -1.82570322   -1.81051113    0.04502785      13
Cr    -1.76176053   -0.02966293   -1.65205337      14
Ni    -1.83176633   -0.03041949    1.77337575      15
Co    -0.10848360   -1.83622231   -1.70349914      16
Cr    -0.12370214   -1.73902109    1.72821864      17
Cr     0.88710088    0.96029743   -0.03302207      18
          18
Lattice="  24.8920   0.0000   0.0000   0.0000  24.8920   0.0000   0.0000   0.0000  24.8920 " ConfE="      -5926.0906" DelE="         -0.0268"
Ni    -0.07496977    3.46788327    0.06542830       1
Co     3.48444739   -0.13202821    0.08059685       2
Cr    -0.09719209   -3.64847889    0.06586278       3
Cr    -3.61789480   -0.08099587    0.03911959       4
Cr    -0.13580631   -0.06358333   -3.50327285       5
Cr    -0.17245814   -0.05976378    3.68526723       6
Co    -0.09718320    1.60163014   -1.69114583       7
Co    -0.05345899    1.65344572    1.81502025       8
Co     1.64514627   -0.09040932   -1.73222969       9
Ni     1.68663654   -0.08839614    1.92379059      10
Co    -1.82636964    1.66259942    0.03217162      11
Cr     1.47922363   -1.60939463    0.00980411      12
Co    -1.82627911   -1.82028134    0.04050152      13
Cr    -1.83549281   -0.04143819   -1.68482250      14
Ni    -1.82997334   -0.05127723    1.76338051      15
Co    -0.12901789   -1.85687184   -1.72588539      16
Cr    -0.13509516   -1.82664397    1.79828686      17
Cr     1.63199005    1.56345560    0.04080801      18
