          18
Lattice="  24.8920   0.0000   0.0000   0.0000  24.8920   0.0000   0.0000   0.0000  24.8920 " ConfE="      -5936.6695" DelE="          0.0000"
Co     0.03639962   -0.01668204   -3.57126504       1
Co    -3.54245015    0.02133598   -0.01428769       2
Ni     3.56530776   -0.01062078   -0.00086462       3
Ni     0.00934994   -3.54464332    0.00535199       4
Cr     0.08575175    3.46156717    0.02143315       5
Co     0.01414440   -0.02036906    3.57161333       6
Ni    -0.05776661    1.67736624   -1.77443019       7
Ni     1.78907855   -1.76964390    0.00221081       8
Co    -1.77300635   -1.76557851   -0.00240669       9
Co    -0.02211195   -1.76526263   -1.79041345      10
Co    -1.77732966    1.72064483    0.02300939      11
Ni     0.01189712   -1.77921832    1.76555575      12
Co     1.79138177   -0.01896373   -1.80587191      13
Co     1.76863346    1.72462539    0.00088380      14
Co    -1.74297014   -0.01751984    1.80961060      15
Cr     1.78694613   -0.03489548    1.80071692      16
Co     0.02312523    1.75521236    1.80423169      17
Co     0.00000000    0.00000000    0.00000000      18
          18
Lattice="  24.8920   0.0000   0.0000   0.0000  24.8920   0.0000   0.0000   0.0000  24.8920 " ConfE="      -5935.8475" DelE="          0.8221"
Co     0.00120156   -0.02112049   -3.48106096       1
Co    -3.47299533    0.00457072   -0.03727084       2
Ni     3.57753797   -0.01378856   -0.00918835       3
Ni     0.04044184   -3.60666043    0.02152747       4
Cr     0.10117544    3.57867747    0.04122522       5
Co     0.00672387   -0.01073220    3.55368061       6
Ni     0.00837877    1.82704001   -1.76197672       7
Ni     1.76078895   -1.76125528   -0.00928291       8
Co    -1.82167360   -1.99785256    0.06433456       9
Co     0.02421722   -1.93897940   -1.82074232      10
Co    -1.79463714    1.87554701    0.05695314      11
Ni     0.01040527   -1.73611309    1.69812036      12
Co     1.68082047   -0.02833206   -1.73301287      13
Co     1.73260342    1.68605061    0.02119566      14
Co    -1.71091835   -0.01341461    1.71874594      15
Cr     1.74396765   -0.00721538    1.73340930      16
Co     0.01337926    1.75573205    1.77097066      17
Co    -0.88045988   -0.09993716   -0.78342317      18
          18
Lattice="  24.8920   0.0000   0.0000   0.0000  24.8920   0.0000   0.0000   0.0000  24.8920 " ConfE="      -5936.5216" DelE="          0.1479"
Co     0.04409214   -0.02115998   -3.57781884       1
Co    -3.58381395    0.01245265    0.00240537       2
Ni     3.59107738   -0.01554105    0.00014217       3
Ni     0.02009221   -3.55866404    0.01429575       4
Cr     0.09641996    3.51864537    0.04639142       5
Co     0.01442773   -0.01526095    3.58345242       6
Ni    -0.00419231    1.68540233   -1.70622980       7
Ni     1.77137842   -1.73776861    0.00518117       8
Co    -1.76883641   -1.78318499    0.01991903       9
Co     0.00366781   -1.79319794   -1.78246552      10
Co    -1.75211819    1.71470954    0.04808513      11
Ni     0.02094976   -1.72588449    1.72627916      12
Co     1.76669821   -0.03202322   -1.78591008      13
Co     1.74625390    1.66204025    0.03306645      14
Co    -1.72464333   -0.01545167    1.76544497      15
Cr     1.79194044   -0.02536710    1.79021216      16
Co     0.02968539    1.73062041    1.78219975      17
Co    -1.71131143   -0.05624158   -1.70603566      18
