          18
Lattice="  24.8920   0.0000   0.0000   0.0000  24.8920   0.0000   0.0000   0.0000  24.8920 " ConfE="      -5940.1928" DelE="          0.0000"
Ni    -3.49807493   -0.00564450    0.00692194       1
Ni     0.01467077   -3.54089460   -0.02436373       2
Co     0.02231502    0.00344793   -3.53548580       3
Co     0.07789833    3.50753259   -0.00403042       4
Cr     0.04366118   -0.00377991    3.57797123       5
Co     3.56992751    0.01041552   -0.03724681       6
Ni    -1.75288457    1.76237926   -0.01008004       7
Ni    -0.01713619    1.75244418   -1.76442519       8
Ni    -1.73934444   -1.75715269   -0.04474915       9
Ni     0.04641838   -1.75908283    1.77221949      10
Co     0.04427758   -1.76498521   -1.78692377      11
Co    -1.74074111    0.02171088    1.86634232      12
Cr     0.01901593    1.75352120    1.81974134      13
Cr     1.81818949    1.75800974    0.02737307      14
Co     1.83878094    0.00395438    1.77391995      15
Cr     1.78779145    0.04131176   -1.79664959      16
Cr     1.83488389   -1.75953661   -0.08102986      17
Ni     0.00000000    0.00000000    0.00000000      18
          18
Lattice="  24.8920   0.0000   0.0000   0.0000  24.8920   0.0000   0.0000   0.0000  24.8920 " ConfE="      -5938.7015" DelE="          1.4913"
Ni    -3.48803446    0.00449436    0.00565645       1
Ni     0.02272511   -3.50017320    0.02808638       2
Co     0.03157856    0.00323237   -3.54771349       3
Co     0.09564922    3.53292342    0.03461750       4
Cr     0.03394670   -0.03190888    3.55652397       5
Co     3.60167596    0.00160667   -0.05667655       6
Ni    -1.74939809    1.85039065    0.07544012       7
Ni     0.03326248    1.88654820   -1.78481380       8
Ni    -1.84661312   -1.90767385    0.01401275       9
Ni     0.06562587   -1.02215248    1.14783700      10
Co     0.15266741   -1.90263166   -1.82897407      11
Co    -1.90674425    0.06254461    1.91317195      12
Cr    -0.00056745    1.65951055    1.78462957      13
Cr     1.72239205    1.63081371    0.03381937      14
Co     2.02607762    0.08233693    1.83664128      15
Cr     1.64051849    0.02570984   -1.74270182      16
Cr     1.92004089   -1.69796845   -0.09147877      17
Ni    -1.15060181   -0.03954945   -1.20993755      18
          18
Lattice="  24.8920   0.0000   0.0000   0.0000  24.8920   0.0000   0.0000   0.0000  24.8920 " ConfE="      -5939.7052" DelE="          0.4876"
Ni    -3.53285212   -0.00583409    0.02358601       1
Ni     0.01333141   -3.54601615   -0.02334169       2
Co     0.06045989    0.00617228   -3.58516569       3
Co     0.08599454    3.52264656    0.00899474       4
Cr     0.03925722   -0.00600134    3.59709064       5
Co     3.60751654    0.00923083   -0.03566694       6
Ni    -1.72253993    1.74775620    0.01513343       7
Ni     0.02608244    1.74391349   -1.72231513       8
Ni    -1.71640701   -1.73912829   -0.01468092       9
Ni     0.05385018   -1.72150077    1.74027619      10
Co     0.08223092   -1.74808286   -1.75301232      11
Co    -1.69697492    0.03809802    1.82779006      12
Cr     0.01354902    1.70409412    1.79986721      13
Cr     1.79877245    1.68555810    0.04488817      14
Co     1.81271135    0.01321679    1.73593849      15
Cr     1.74400680    0.02751829   -1.75955008      16
Cr     1.81344584   -1.70332293   -0.07319003      17
Ni    -1.71212284   -0.00884878   -1.76996256      18
