          18
Lattice="  24.8920   0.0000   0.0000   0.0000  24.8920   0.0000   0.0000   0.0000  24.8920 " ConfE="      -5923.1643" DelE="          0.0000"
Ni     0.01794065   -3.43361263    0.05524126       1
Cr    -0.02372292    0.01523917   -3.45951375       2
Co    -3.56205242    0.03632748    0.05379230       3
Cr    -0.13427463    3.62164839    0.05353538       4
Cr     3.60942089   -0.00045363    0.09809157       5
Co    -0.03852766    0.05662323    3.62436956       6
Ni    -1.76783590    0.01979560   -1.74077394       7
Ni     0.01062664    1.85380025   -1.73078812       8
Cr     1.73090745   -0.02241967   -1.67505806       9
Cr    -1.73694663   -1.69010215    0.02278381      10
Co     1.79075807   -1.68998703    0.02432621      11
Ni     1.78259306    0.05331217    1.84382194      12
Co    -0.01272416   -1.69876266    1.87641711      13
Co    -1.76723921    1.79983437    0.06645843      14
Cr     1.78493140    1.76154832    0.03931074      15
Cr    -1.79442423    0.02358828    1.81563713      16
Cr    -0.01651283    1.79204112    1.80073211      17
Co     0.00000000    0.00000000    0.00000000      18
          18
Lattice="  24.8920   0.0000   0.0000   0.0000  24.8920   0.0000   0.0000   0.0000  24.8920 " ConfE="      -5922.5010" DelE="          0.6633"
Ni     0.02326369   -3.41363392    0.03952053       1
Cr    -0.06004123    0.01801761   -3.44395528       2
Co    -3.61381163    0.05122436    0.06773555       3
Cr    -0.14128680    3.62483126    0.04448353       4
Cr     3.69072694    0.01113619    0.13185732       5
Co    -0.03955448    0.03976366    3.62417256       6
Ni    -1.91964888    0.08081631   -1.76195315       7
Ni     0.00692973    1.78713331   -1.71106004       8
Cr     1.91434238    0.06210747   -1.66428792       9
Cr    -1.86689409   -1.69511000    0.02686259      10
Co     1.98481492   -1.74869781    0.10041204      11
Ni     1.78125042    0.03995879    1.81401462      12
Co    -0.01850607   -1.64485419    1.76314285      13
Co    -1.73406669    1.74782195    0.08115377      14
Cr     1.72313125    1.70637688    0.05069274      15
Cr    -1.77103588   -0.00197511    1.77292263      16
Cr    -0.02623430    1.73257430    1.76150677      17
Co     0.04983996   -0.92093283   -0.90892011      18
          18
Lattice="  24.8920   0.0000   0.0000   0.0000  24.8920   0.0000   0.0000   0.0000  24.8920 " ConfE="      -5922.9983" DelE="          0.1661"
Ni     0.01295863   -3.48371186    0.09239194       1
Cr    -0.02431167    0.04520468   -3.51235053       2
Co    -3.57647535    0.03968618    0.06180236       3
Cr    -0.14175155    3.65132188    0.05865378       4
Cr     3.63602711   -0.00098454    0.10866703       5
Co    -0.04214116    0.05362269    3.64212835       6
Ni    -1.76207367    0.05037656   -1.70678614       7
Ni     0.01767437    1.81307164   -1.70665979       8
Cr     1.74582785    0.00730041   -1.64566512       9
Cr    -1.71613983   -1.65794613    0.05217000      10
Co     1.76967961   -1.65238938    0.04747961      11
Ni     1.75624238    0.06031655    1.83145076      12
Co    -0.03808102   -1.66139246    1.82511574      13
Co    -1.71608263    1.75809478    0.09888972      14
Cr     1.73446670    1.72417000    0.05114175      15
Cr    -1.77554903    0.02969221    1.80932535      16
Cr    -0.02378804    1.77127135    1.78284336      17
Co     0.00070138   -1.67864620   -1.67355066      18
