          18
Lattice="  24.8920   0.0000   0.0000   0.0000  24.8920   0.0000   0.0000   0.0000  24.8920 " ConfE="      -5936.6886" DelE="          0.0000"
Ni     3.60740162   -0.00458275   -0.05923161       1
Co    -3.50574729    0.05619446   -0.00749818       2
Co     0.07435320   -0.04181709    3.54208113       3
Co     0.04653762    0.03085284   -3.59522214       4
Co     0.05626795    3.50244431   -0.08086081       5
Co     0.06789386   -3.58129207    0.02633780       6
Ni     0.04219379    1.74541208    1.73589947       7
Ni    -0.00094897   -1.75134175    1.76804175       8
Ni    -1.75629449   -1.73438091    0.00579900       9
Cr    -1.82678835    1.70603211    0.04583260      10
Ni     1.81768731   -1.78654626   -0.02831870      11
Ni     0.04870976   -1.77397966   -1.80162310      12
Co     1.86103659    0.00994991    1.75408949      13
Cr     1.77382727   -0.00217637   -1.80586117      14
Cr     1.85154857    1.76444048   -0.08877531      15
Co    -1.73671844    0.04712406   -1.84476110      16
Cr     0.00402677    1.72157548   -1.81822770      17
Ni     0.00000000    0.00000000    0.00000000      18
          18
Lattice="  24.8920   0.0000   0.0000   0.0000  24.8920   0.0000   0.0000   0.0000  24.8920 " ConfE="      -5932.5960" DelE="          4.0926"
Ni     3.73040130    0.04513991   -0.09919351       1
Co    -3.56449882    0.04882991   -0.00142044       2
Co    -0.10121293   -0.05750446    3.65296832       3
Co     0.04272560    0.01659233   -3.58344463       4
Co     0.05391464    3.49460691   -0.07790462       5
Co    -0.08257806   -3.63706995    0.12275763       6
Ni     0.09967847    1.60848449    1.67586388       7
Ni    -0.09833433   -1.72367321    1.86092270       8
Ni    -1.82415188   -1.71390084    0.07263351       9
Cr    -1.69113794    1.52910884   -0.02741793      10
Ni     1.48715970   -2.26180898   -0.98417302      11
Ni    -0.16907329   -0.56327646   -1.11894166      12
Co     1.94729883    0.17328522    2.56919206      13
Cr     1.96317820    0.10410929   -1.93005749      14
Cr     1.84701888    1.78601923   -0.10243176      15
Co    -2.09322960    0.13891561   -2.04020742      16
Cr     0.00877496    1.73732482   -1.83033277      17
Ni     1.46596945   -0.49541728    0.48958233      18
          18
Lattice="  24.8920   0.0000   0.0000   0.0000  24.8920   0.0000   0.0000   0.0000  24.8920 " ConfE="      -5936.6887" DelE="         -0.0000"
Ni     3.60728087   -0.00485138   -0.05947137       1
Co    -3.50497021    0.05595809   -0.00779232       2
Co     0.07380330   -0.04214053    3.54160810       3
Co     0.04655292    0.03068824   -3.59541766       4
Co     0.05615972    3.50240376   -0.08117601       5
Co     0.06799570   -3.58175362    0.02591200       6
Ni     0.04192560    1.74541426    1.73542850       7
Ni    -0.00082010   -1.75202307    1.76781481       8
Ni    -1.75594486   -1.73496143    0.00551354       9
Cr    -1.82657097    1.70536127    0.04580950      10
Ni     0.04895916   -1.77448552   -1.80172262      11
Ni     0.00025225   -0.00042848   -0.00038321      12
Co     1.86083535    0.00963817    1.75409297      13
Cr     1.77381709   -0.00257717   -1.80628439      14
Cr     1.85182062    1.76422591   -0.08860078      15
Co    -1.73629378    0.04675674   -1.84513038      16
Cr     0.00472687    1.72156889   -1.81825807      17
Ni     1.81759037   -1.78690125   -0.02862306      18
