          18
Lattice="  24.8920   0.0000   0.0000   0.0000  24.8920   0.0000   0.0000   0.0000  24.8920 " ConfE="      -5940.8382" DelE="          0.0000"
Co    -3.35618598   -0.00450007    0.03498129       1
Cr    -0.11251828    3.33858249   -0.00019066       2
Co     3.69231776   -0.09766924    0.03437281       3
Cr     0.05410488   -3.68023358    0.05149755       4
Cr     0.05587430   -0.04907703    3.61148196       5
Cr     0.06619078   -0.07735421   -3.54122307       6
Cr    -1.76663391   -0.01934367    1.76897526       7
Co    -1.67741370   -0.05932403   -1.72816820       8
Ni    -0.04584072    1.67642491    1.77890635       9
Cr    -0.03451804    1.68080111   -1.76459027      10
Cr    -1.70442726   -1.92362102    0.01148103      11
Cr     1.90574078    1.59969930    0.03669146      12
Cr     1.91918009   -1.74970057    0.05800776      13
Ni     0.06203191   -1.83128562    1.79436275      14
Ni     0.09481716   -1.88874409   -1.72798671      15
Co     1.85243772   -0.05925964    1.82723656      16
Co     1.87388549   -0.07489393   -1.77894554      17
Cr     0.00000000    0.00000000    0.00000000      18
          18
Lattice="  24.8920   0.0000   0.0000   0.0000  24.8920   0.0000   0.0000   0.0000  24.8920 " ConfE="      -5940.2411" DelE="          0.5972"
Co    -3.36731713   -0.03697393    0.01495487       1
Cr    -0.08545761    3.35964616    0.01589816       2
Co     3.68926709   -0.09232470    0.03753953       3
Cr     0.04157630   -3.64302543    0.05905468       4
Cr     0.11844343   -0.07082282    3.67464069       5
Cr     0.08965136   -0.10875554   -3.63722728       6
Cr    -1.76868204   -0.00427229    1.98636866       7
Co    -1.76090220   -0.16316285   -1.95149013       8
Ni     0.01601176    1.68796361    1.88566349       9
Cr     0.00252326    1.68294720   -1.88725575      10
Cr    -1.67876591   -1.88932832   -0.00296591      11
Cr     1.79789537    1.53154955    0.02125654      12
Cr     1.83184130   -1.66375291    0.05912304      13
Ni     0.03844347   -1.76392035    1.77121324      14
Ni     0.06925123   -1.82460877   -1.71554207      15
Co     1.82666682   -0.04491640    1.80700414      16
Co     1.82492123   -0.06152977   -1.75531729      17
Cr    -0.87230953    0.63416049   -0.03797270      18
          18
Lattice="  24.8920   0.0000   0.0000   0.0000  24.8920   0.0000   0.0000   0.0000  24.8920 " ConfE="      -5941.0080" DelE="         -0.1698"
Co    -3.47578192   -0.04533813    0.00927694       1
Cr     0.06595171    3.46725395    0.01390488       2
Co     3.72998316   -0.10124966    0.03938410       3
Cr     0.04280382   -3.66071434    0.05677852       4
Cr     0.06873335   -0.05662678    3.62457979       5
Cr     0.07038421   -0.07814602   -3.54982025       6
Cr    -1.71990190   -0.04646938    1.75377371       7
Co    -1.62783683   -0.06822739   -1.68419106       8
Ni     0.04480137    1.63426573    1.76131710       9
Cr     0.11403966    1.64171649   -1.73273146      10
Cr    -1.65481732   -1.83346256    0.01269921      11
Cr     1.84742676    1.51380072    0.01395304      12
Cr     1.89052266   -1.69490825    0.06660830      13
Ni     0.07854141   -1.80520936    1.77441052      14
Ni     0.11304996   -1.85839559   -1.70456103      15
Co     1.87312635   -0.07244596    1.82294191      16
Co     1.88526210   -0.09806386   -1.75961787      17
Cr    -1.65011133    1.64907035   -0.00261404      18
