          18
Lattice="  24.8920   0.0000   0.0000   0.0000  24.8920   0.0000   0.0000   0.0000  24.8920 " ConfE="      -5937.5635" DelE="          0.0000"
Ni     0.02692670   -3.51140985    0.02650905       1
Ni    -3.49270580    0.00421639   -0.01366254       2
Ni     0.03325000    0.05785631   -3.58843213       3
Co     0.01140953   -0.03915463    3.47076616       4
Co     3.57615814    0.06565168   -0.04614425       5
Cr     0.03303120    3.57498866   -0.01588750       6
Ni     1.75196406   -1.76883954   -0.01051223       7
Ni     1.77155961   -0.05810353    1.76224011       8
Ni    -1.72414965   -1.74914080    0.01350006       9
Cr    -1.67048090    0.04514457    1.83242960      10
Co     1.76685204    1.81423783    0.00981153      11
Co     0.05922663    1.82780284    1.76075690      12
Co    -0.03163061   -1.72092250   -1.85323182      13
Co     1.76859444    0.08356336   -1.80543015      14
Cr    -1.71169321    1.79699231    0.04440383      15
Cr     0.09234249    1.81659284   -1.79668221      16
Cr    -1.75097628    0.06947349   -1.82073337      17
Ni     0.00000000    0.00000000    0.00000000      18
          18
Lattice="  24.8920   0.0000   0.0000   0.0000  24.8920   0.0000   0.0000   0.0000  24.8920 " ConfE="      -5936.7462" DelE="          0.8173"
Ni     0.02709249   -3.44286276    0.02132916       1
Ni    -3.54522000    0.01914490   -0.02870583       2
Ni     0.03320302    0.05684216   -3.59468095       3
Co     0.05116523   -0.03212549    3.47778420       4
Co     3.63286357    0.08099463   -0.06595570       5
Cr     0.03301878    3.58145339   -0.00886703       6
Ni     1.89511734   -1.75734655   -0.06862913       7
Ni     1.94907168    0.03390599    1.77508897       8
Ni    -1.88608574   -1.78213312   -0.07075647       9
Cr    -1.84530409    0.11530058    1.85896501      10
Co     1.74619971    1.79118708    0.01317543      11
Co     0.04814717    1.76303509    1.72585900      12
Co    -0.03798276   -1.66413373   -1.78697875      13
Co     1.74886311    0.08272905   -1.77006502      14
Cr    -1.65947752    1.72278156    0.04187506      15
Cr     0.10974622    1.72821473   -1.70341067      16
Cr    -1.70972269    0.04846409   -1.77361218      17
Ni    -0.01809223   -0.88816159    0.94425454      18
          18
Lattice="  24.8920   0.0000   0.0000   0.0000  24.8920   0.0000   0.0000   0.0000  24.8920 " ConfE="      -5937.4862" DelE="          0.0773"
Ni     0.02472286   -3.54159541   -0.00419155       1
Ni    -3.50738286    0.01097336   -0.02472712       2
Ni     0.03894925    0.06564987   -3.61287757       3
Co     0.03453607    0.01076843    3.54433765       4
Co     3.59859196    0.07513819   -0.05471576       5
Cr     0.03682867    3.60321307   -0.02344756       6
Ni     1.74396194   -1.73204056   -0.04535895       7
Ni     1.77681690   -0.00977105    1.72615282       8
Ni    -1.71014202   -1.71393818   -0.01496948       9
Cr    -1.66071052    0.09092727    1.76110796      10
Co     1.73245468    1.80175948   -0.00607459      11
Co     0.03366228    1.76524879    1.71451661      12
Co    -0.03520055   -1.67067606   -1.82083934      13
Co     1.73406768    0.09420847   -1.77952695      14
Cr    -1.65451185    1.75999170    0.01417657      15
Cr     0.12006121    1.78149071   -1.76103147      16
Cr    -1.69195503    0.07250210   -1.78326348      17
Ni     0.02689262   -1.75227514    1.75682917      18
