          18
Lattice="  24.8920   0.0000   0.0000   0.0000  24.8920   0.0000   0.0000   0.0000  24.8920 " ConfE="      -5946.1629" DelE="          0.0000"
Ni     0.04915129   -3.60032164    0.04473601       1
Co    -0.00343477   -0.02436255   -3.51408636       2
Co     0.02100813    3.50768893    0.00197215       3
Cr    -3.42237799   -0.04934962   -0.00465566       4
Co     0.02876565   -0.06445608    3.59808835       5
Co     3.55897736   -0.03946914    0.02548256       6
Ni     1.73271906   -0.00736354   -1.76954862       7
Ni     1.75433480    1.73971863   -0.01305974       8
Ni     0.02036398   -1.83779390   -1.73762506       9
Cr    -1.76202946    0.00150397   -1.71966062      10
Co    -1.74440052    1.73638020    0.00395845      11
Co    -1.73436884   -1.81911488    0.06670273      12
Cr     0.03428105   -1.79055906    1.82374105      13
Cr     1.83225620   -1.77915313   -0.03058446      14
Cr     0.06968333    1.75930578    1.82970479      15
Co    -1.72756519   -0.04320434    1.80734437      16
Cr     1.78147242   -0.01928727    1.82520332      17
Ni     0.00000000    0.00000000    0.00000000      18
          18
Lattice="  24.8920   0.0000   0.0000   0.0000  24.8920   0.0000   0.0000   0.0000  24.8920 " ConfE="      -5945.3998" DelE="          0.7631"
Ni     0.04402623   -3.59071876    0.04427104       1
Co     0.02145847   -0.02962985   -3.49052259       2
Co     0.02665387    3.47721657    0.01718325       3
Cr    -3.49993622   -0.06734692    0.02820706       4
Co     0.03017136   -0.06377663    3.61368249       5
Co     3.64145653   -0.06039747    0.04895338       6
Ni     1.90936476   -0.11139071   -1.77228718       7
Ni     1.92516743    1.73994521    0.04685293       8
Ni     0.03153909   -1.77458887   -1.70130884       9
Cr    -1.89218364   -0.09106115   -1.72453728      10
Co    -1.91560259    1.78131971    0.07287903      11
Co    -1.70403247   -1.75991890    0.05592528      12
Cr     0.01457394   -1.65526318    1.72112352      13
Cr     1.79844905   -1.74191257   -0.00640723      14
Cr     0.04188254    1.65065519    1.70042004      15
Co    -1.68874178   -0.02767384    1.75547301      16
Cr     1.76749931   -0.01541986    1.77249570      17
Ni    -0.01299250    1.02072920   -1.04512237      18
          18
Lattice="  24.8920   0.0000   0.0000   0.0000  24.8920   0.0000   0.0000   0.0000  24.8920 " ConfE="      -5946.0326" DelE="          0.1303"
Ni     0.04707230   -3.60990550    0.04738964       1
Co    -0.00724478   -0.05464100   -3.55181027       2
Co     0.03005466    3.53899527    0.03062949       3
Cr    -3.47310102   -0.05810478    0.01032087       4
Co     0.03248545   -0.06582920    3.63346252       5
Co     3.59878452   -0.04632088    0.03540034       6
Ni     1.74257211   -0.05758606   -1.72605074       7
Ni     1.75832942    1.69912033    0.02388748       8
Ni     0.01874532   -1.79706340   -1.70715446       9
Cr    -1.76084413   -0.04367820   -1.65266259      10
Co    -1.72823825    1.68418587    0.03034598      11
Co    -1.69395057   -1.77852788    0.06633977      12
Cr     0.02781847   -1.69714855    1.75544565      13
Cr     1.80302882   -1.76276891   -0.00340062      14
Cr     0.05714982    1.67085911    1.77569507      15
Co    -1.66612820   -0.04387335    1.77083465      16
Cr     1.76281434   -0.02787871    1.80148481      17
Ni     0.00179935    1.70456063   -1.72801504      18
