          18
Lattice="  24.8920   0.0000   0.0000   0.0000  24.8920   0.0000   0.0000   0.0000  24.8920 " ConfE="      -5941.0396" DelE="          0.0000"
Cr    -0.01394339    3.39360270    0.00731611       1
Ni    -3.72428803   -0.08972915    0.03649611       2
Cr     3.19607038    0.03885912    0.00134075       3
Co    -0.17196982   -0.10314474   -3.51784499       4
Cr    -0.15365138   -0.13834769    3.66541827       5
Co    -0.18250687   -3.67155696    0.02983119       6
Ni    -0.13166401    1.67374983   -1.74156460       7
Ni    -1.93197229    1.68612650    0.03996250       8
Ni    -1.91354823   -0.11294459   -1.73561523       9
Cr     1.61347237   -0.12341423   -1.78902829      10
Cr    -0.15090243    1.68662288    1.82357967      11
Ni    -1.91908745   -1.85814171    0.04464402      12
Co     1.54983330   -0.09705491    1.78787538      13
Cr    -1.87796759   -0.11276849    1.82875619      14
Co     1.59081460   -1.89776732    0.02109626      15
Cr    -0.18867977   -1.93627863   -1.75996841      16
Cr    -0.12833746   -1.95842770    1.84344201      17
Cr     0.00000000    0.00000000    0.00000000      18
          18
Lattice="  24.8920   0.0000   0.0000   0.0000  24.8920   0.0000   0.0000   0.0000  24.8920 " ConfE="      -5940.4765" DelE="          0.5630"
Cr    -0.08622892    3.44118020    0.03279090       1
Ni    -3.74582387   -0.07972930    0.03145192       2
Cr     3.36250113   -0.00206650    0.02581830       3
Co    -0.21721332   -0.12494551   -3.58002005       4
Cr    -0.19954727   -0.17574440    3.75361813       5
Co    -0.16609110   -3.64846144    0.02375791       6
Ni    -0.23412033    1.65358888   -1.84430244       7
Ni    -1.87212776    1.65177407    0.05473641       8
Ni    -1.92298277   -0.11242097   -1.73191299       9
Cr     1.64689733   -0.11495571   -1.92173448      10
Cr    -0.20538638    1.57390670    1.96533530      11
Ni    -1.95648597   -1.85645268    0.03051246      12
Co     1.63090912   -0.14387502    1.94767497      13
Cr    -1.89245011   -0.12663864    1.79635984      14
Co     1.61887906   -1.78512672    0.01244859      15
Cr    -0.12510175   -1.75211678   -1.59147270      16
Cr    -0.08355623   -1.71475970    1.65585455      17
Cr     0.89390546    0.83242149    0.01470957      18
          18
Lattice="  24.8920   0.0000   0.0000   0.0000  24.8920   0.0000   0.0000   0.0000  24.8920 " ConfE="      -5941.1558" DelE="         -0.1163"
Cr    -0.17710286    3.51433053    0.01695386       1
Ni    -3.75565980   -0.10315658    0.03680805       2
Cr     3.39327819   -0.11562075   -0.01054170       3
Co    -0.18705769   -0.10956549   -3.52775555       4
Cr    -0.15307951   -0.13996110    3.64299203       5
Co    -0.18847151   -3.69382748    0.03020039       6
Ni    -0.17252408    1.62172543   -1.69520393       7
Ni    -1.92796954    1.65279258    0.05022328       8
Ni    -1.92003943   -0.13309995   -1.72106171       9
Cr     1.57037359   -0.14080322   -1.70595739      10
Cr    -0.17204468    1.60440834    1.80175428      11
Ni    -1.95438551   -1.88152638    0.03892390      12
Co     1.53410245   -0.10569958    1.73229329      13
Cr    -1.87015925   -0.13765708    1.79199112      14
Co     1.55364713   -1.83677136    0.00551137      15
Cr    -0.18313597   -1.88664954   -1.69010144      16
Cr    -0.12397027   -1.87171622    1.74919684      17
Cr     1.58819097    1.64758319    0.02866537      18
