          18
Lattice="  24.8920   0.0000   0.0000   0.0000  24.8920   0.0000   0.0000   0.0000  24.8920 " ConfE="      -5923.4131" DelE="          0.0000"
Ni    -3.50926300   -0.06239325   -0.04160142       1
Ni     0.02563417   -3.56098871    0.00636610       2
Cr     0.08761877   -0.04534321   -3.42975464       3
Cr     0.00659798   -0.03121669    3.61064085       4
Cr     0.06553681    3.41104060   -0.01818977       5
Co     3.61363662   -0.05349896    0.03811653       6
Ni    -1.77090410   -1.76215494   -0.05751266       7
Ni    -1.75583272   -0.05098295    1.80632735       8
Cr    -1.71412829    1.69109364   -0.06297958       9
Co     0.03885457    1.67203155   -1.77230245      10
Ni     0.00703907   -1.80548558    1.78257208      11
Co     0.00605120   -1.71380271   -1.79014928      12
Co     0.03281697    1.72162939    1.79662468      13
Co     1.80584024    1.71462531    0.03535150      14
Cr     1.82329014   -0.06283725    1.77272782      15
Co     1.86575328   -0.03898255   -1.72841014      16
Co     1.80632791   -1.77462145    0.04869513      17
Co     0.00000000    0.00000000    0.00000000      18
          18
Lattice="  24.8920   0.0000   0.0000   0.0000  24.8920   0.0000   0.0000   0.0000  24.8920 " ConfE="      -5922.2490" DelE="          1.1641"
Ni    -3.48606769   -0.05492287   -0.03937302       1
Ni     0.05318161   -3.57985101    0.02461127       2
Cr     0.05703974   -0.03702230   -3.44192025       3
Cr    -0.03558393   -0.05790774    3.66414301       4
Cr     0.14596836    3.39634120   -0.01324080       5
Co     3.60118617   -0.06717087    0.02432209       6
Ni    -1.79083370   -1.90239255    0.02282523       7
Ni    -1.70624231   -0.02746538    1.73173403       8
Cr    -1.74627416    1.89041194    0.02699093       9
Co     0.16977926    1.87027353   -1.82523748      10
Ni     0.02152057   -1.75426494    1.75485910      11
Co     0.04894171   -1.83839633   -1.79006737      12
Co    -0.00158168    1.73283343    1.88264872      13
Co     1.39808577    1.13773232    0.10967162      14
Cr     1.84257904   -0.11679486    1.92116474      15
Co     1.78255450   -0.08591233   -1.83997393      16
Co     1.76496989   -1.68723146    0.04820754      17
Co    -0.97377912    0.08427122   -0.96718339      18
          18
Lattice="  24.8920   0.0000   0.0000   0.0000  24.8920   0.0000   0.0000   0.0000  24.8920 " ConfE="      -5923.4568" DelE="         -0.0437"
Ni    -3.54838691   -0.06360249    0.00175432       1
Ni     0.03880282   -3.57879840    0.02275603       2
Cr     0.08213903   -0.03620038   -3.48248056       3
Cr     0.00039174   -0.03343938    3.65011809       4
Cr     0.06186735    3.45212165   -0.00579624       5
Co     3.62871690   -0.05718597    0.03222448       6
Ni    -1.74139231   -1.77741865   -0.00800973       7
Ni    -1.72245504   -0.04429068    1.76593990       8
Cr    -1.67275358    1.66878996   -0.05113127       9
Co     0.05821466    1.66996210   -1.73742388      10
Ni     0.02771706   -1.76978993    1.77355683      11
Co     0.03061939   -1.72987718   -1.75724580      12
Co     0.04094820    1.67541020    1.76004091      13
Co     1.76172681    1.66953350    0.04902569      14
Cr     1.83495306   -0.07860224    1.75315557      15
Co     1.81322051   -0.04896927   -1.70717507      16
Co     1.78796439   -1.74264353    0.06235351      17
Co    -1.73446981   -0.01435899   -1.74141182      18
