          18
Lattice="  24.8920   0.0000   0.0000   0.0000  24.8920   0.0000   0.0000   0.0000  24.8920 " ConfE="      -5945.0026" DelE="          0.0000"
Ni     0.12400429   -3.48256108   -0.03517346       1
Co     0.12128262   -0.01343325    3.43292299       2
Co     0.07293295    0.05366910   -3.64312465       3
Co     0.08585910    3.61154914   -0.09483609       4
Co     3.63999828    0.02630134   -0.06258979       5
Cr    -3.31595973    0.00489940   -0.05610306       6
Cr     1.78681036    0.00573395    1.71986260       7
Co    -1.61642051    0.02437755    1.70460100       8
Ni     0.10526438   -1.75087440   -1.85700167       9
Cr     1.86123237   -1.68353414   -0.05435082      10
Co    -1.61083004   -1.74285230    0.01821136      11
Ni     1.82589738    0.02016125   -1.83723050      12
Ni    -1.66576663    0.01178875   -1.87286167      13
Ni     1.84240983    1.79075953   -0.07797900      14
Cr     0.11804964    1.84502402    1.68957477      15
Co     0.06970195    1.81360376   -1.84838525      16
Co    -1.67909840    1.81559639   -0.08933666      17
Cr     0.00000000    0.00000000    0.00000000      18
          18
Lattice="  24.8920   0.0000   0.0000   0.0000  24.8920   0.0000   0.0000   0.0000  24.8920 " ConfE="      -5944.4369" DelE="          0.5657"
Ni     0.13350579   -3.43893904   -0.03507399       1
Co     0.13664181   -0.02360670    3.37406574       2
Co     0.07457714    0.04696359   -3.64141466       3
Co     0.08397151    3.62410617   -0.09583069       4
Co     3.67459969    0.03519371   -0.07285577       5
Cr    -3.44679010    0.05986126   -0.09315044       6
Cr     1.99423431    0.07896836    1.78655355       7
Co    -1.70928126    0.03463438    1.70405422       8
Ni     0.11382803   -1.73709910   -1.81576262       9
Cr     2.05843708   -1.76993422   -0.15258974      10
Co    -1.73840178   -1.75745220   -0.02988823      11
Ni     1.81498533    0.00069160   -1.79600274      12
Ni    -1.64810471   -0.00609878   -1.81065036      13
Ni     1.80533420    1.73219508   -0.05502481      14
Cr     0.10170432    1.79438464    1.65282065      15
Co     0.06615095    1.78325082   -1.81206014      16
Co    -1.64513415    1.76061981   -0.07044404      17
Cr     0.14683759   -0.67521507    0.59815001      18
          18
Lattice="  24.8920   0.0000   0.0000   0.0000  24.8920   0.0000   0.0000   0.0000  24.8920 " ConfE="      -5945.0675" DelE="         -0.0649"
Ni     0.12921792   -3.51004095   -0.05644195       1
Co     0.10689240    0.02596023    3.52130873       2
Co     0.06790291    0.05579934   -3.66225257       3
Co     0.08448908    3.63215670   -0.10873798       4
Co     3.67555226    0.04148463   -0.08054611       5
Cr    -3.40882176    0.04626396   -0.09150266       6
Cr     1.86346489    0.06424250    1.70286995       7
Co    -1.60445195    0.05258625    1.67360083       8
Ni     0.11431707   -1.72174343   -1.81000800       9
Cr     1.88523183   -1.66310645   -0.10891261      10
Co    -1.61305379   -1.71475873   -0.00999041      11
Ni     1.81404897    0.03657374   -1.83489870      12
Ni    -1.64715403    0.01717607   -1.83804630      13
Ni     1.82464360    1.77749517   -0.09984298      14
Cr     0.09978780    1.70646130    1.61511474      15
Co     0.06294760    1.81825562   -1.85723985      16
Co    -1.65792943    1.78862491   -0.10009457      17
Cr     0.10718812   -1.56616229    1.63054082      18
