          18
Lattice="  24.8920   0.0000   0.0000   0.0000  24.8920   0.0000   0.0000   0.0000  24.8920 " ConfE="      -5937.7205" DelE="          0.0000"
Ni     3.48627827   -0.03670208    0.02577716       1
Co     0.08678898   -0.06431617   -3.45457537       2
Cr    -3.51845741    0.09860008    0.01890112       3
Co    -0.03865106   -0.01161677    3.63123677       4
Co     0.03981533   -3.63602681    0.02382051       5
Ni     0.00841233    3.52673445    0.06686368       6
Co     1.76494808   -1.82822674   -0.02104562       7
Ni     1.74356866    1.74848252    0.04459647       8
Co     0.07174138   -1.84085863   -1.76301766       9
Co     0.06393309    1.72499580   -1.75247123      10
Ni     1.75461690   -0.02955294    1.84925957      11
Ni    -1.75791188   -0.02214759   -1.72769173      12
Ni    -1.76956966   -0.01937973    1.83435081      13
Ni     0.00399755   -1.79969072    1.81425210      14
Ni     0.01069143    1.75026982    1.83564736      15
Ni    -1.75406765   -1.78532700    0.03269892      16
Co    -1.79608682    1.76124805    0.05239957      17
Co     0.00000000    0.00000000    0.00000000      18
          18
Lattice="  24.8920   0.0000   0.0000   0.0000  24.8920   0.0000   0.0000   0.0000  24.8920 " ConfE="      -5937.1340" DelE="          0.5865"
Ni     3.45988389   -0.04757427   -0.01630566       1
Co     0.00191207   -0.05253655   -3.40546520       2
Cr    -3.57589779    0.08963792    0.02506113       3
Co    -0.03317362   -0.01287582    3.61749300       4
Co     0.03320337   -3.68895304    0.03300382       5
Ni     0.00605792    3.55792732    0.06593789       6
Co     1.80972845   -1.95148144   -0.05932010       7
Ni     1.76917542    1.82757244    0.06070960       8
Co    -0.10024273   -2.02976738   -1.78724961       9
Co     0.00858575    1.85106956   -1.77459040      10
Ni     1.74041389   -0.03391217    1.77964617      11
Ni    -1.76736553   -0.01284862   -1.68945765      12
Ni    -1.74760819   -0.01140937    1.79711977      13
Ni     0.02103400   -1.78021434    1.75247000      14
Ni     0.01786314    1.73367427    1.78892027      15
Ni    -1.74155772   -1.76010656    0.03032128      16
Co    -1.77902635    1.75668354    0.04792573      17
Co     0.56683593   -0.09061801   -0.67976042      18
          18
Lattice="  24.8920   0.0000   0.0000   0.0000  24.8920   0.0000   0.0000   0.0000  24.8920 " ConfE="      -5938.4078" DelE="         -0.6873"
Ni     3.53020844   -0.03950297    0.06567864       1
Co     0.03042248   -0.07349226   -3.51737491       2
Cr    -3.55233011    0.10073585    0.02205485       3
Co    -0.04080381   -0.01010652    3.63979381       4
Co     0.03610990   -3.65447214    0.02323377       5
Ni     0.00725585    3.53852968    0.07320715       6
Co     1.74889730   -1.84420038    0.00711898       7
Ni     1.71905191    1.72136585    0.05009625       8
Co     0.04490304   -1.86760548   -1.76493539       9
Co     0.04229234    1.71462360   -1.72941587      10
Ni     1.73271329   -0.03625873    1.81247938      11
Ni    -1.70181028   -0.02522474   -1.68416503      12
Ni    -1.75590367   -0.01508245    1.81345354      13
Ni     0.00112670   -1.78842466    1.80056313      14
Ni     0.00603733    1.73463936    1.81783499      15
Ni    -1.72667359   -1.75597848    0.03431675      16
Co    -1.79134330    1.75030507    0.05763448      17
Co     1.79954144   -0.09237239   -1.75775651      18
