          18
Lattice="  24.8920   0.0000   0.0000   0.0000  24.8920   0.0000   0.0000   0.0000  24.8920 " ConfE="      -5950.0893" DelE="          0.0000"
Ni     3.53804306   -0.05140449    0.00313947       1
Ni    -3.54659455    0.00065928   -0.02843637       2
Cr     0.01705017   -3.52612898    0.03382304       3
Co    -0.00909170    3.55364611   -0.01333918       4
Cr     0.07375083   -0.02387967    3.52555587       5
Co     0.00169435    0.00332573   -3.56201178       6
Ni     1.79975167   -0.03807445    1.73590457       7
Ni     1.76841885   -0.03535374   -1.74316316       8
Ni     0.05003628   -1.78734782    1.71510557       9
Co    -0.00760501   -1.77567886   -1.72951079      10
Ni    -1.76246837   -0.01131798    1.77144244      11
Co     1.73074239    1.81350635   -0.03310999      12
Cr     0.03488667    1.78105854    1.76971847      13
Co     0.03103506    1.80055704   -1.80903753      14
Cr    -1.65996724   -0.06804696   -1.77583985      15
Cr    -1.67389752    1.72618707   -0.06705335      16
Co    -1.78974660   -1.77559633    0.01231809      17
Co     0.00000000    0.00000000    0.00000000      18
          18
Lattice="  24.8920   0.0000   0.0000   0.0000  24.8920   0.0000   0.0000   0.0000  24.8920 " ConfE="      -5948.9688" DelE="          1.1204"
Ni     3.49133189   -0.04816290    0.02514435       1
Ni    -3.54119852   -0.01807513   -0.02337922       2
Cr     0.03003437   -3.46001464    0.06056672       3
Co     0.00579697    3.53852031   -0.01564143       4
Cr     0.00731769    0.00366954    3.66852420       5
Co    -0.01541259    0.02952091   -3.64337194       6
Ni     1.81855970   -0.00705840    1.94917010       7
Ni     1.78677850    0.04070577   -1.90425418       8
Ni    -0.01755087   -1.78555563    1.93396356       9
Co    -0.06606058   -1.76682706   -1.91376299      10
Ni    -1.72059756   -0.01285529    1.76078585      11
Co     1.65147827    1.66229630    0.01984118      12
Cr     0.05856495    1.71120932    1.73819095      13
Co     0.01903606    1.76863694   -1.79489773      14
Cr    -1.62284056   -0.07065776   -1.75776533      15
Cr    -1.60549080    1.65231665   -0.06482245      16
Co    -1.64979595   -1.72659080   -0.00827702      17
Co     0.99247157   -1.03333371   -0.01051280      18
          18
Lattice="  24.8920   0.0000   0.0000   0.0000  24.8920   0.0000   0.0000   0.0000  24.8920 " ConfE="      -5949.6121" DelE="          0.4772"
Ni     3.56007826   -0.03447091    0.00323761       1
Ni    -3.55845330    0.00026324   -0.02561389       2
Cr     0.00761395   -3.55410544    0.03641640       3
Co    -0.00868157    3.57167679   -0.01926909       4
Cr     0.06065946   -0.00147585    3.57753918       5
Co    -0.00182874    0.01416704   -3.58333043       6
Ni     1.76504594   -0.01095989    1.74361632       7
Ni     1.73913339   -0.01263093   -1.73499100       8
Ni     0.00997235   -1.75722573    1.74765922       9
Co    -0.03280246   -1.74214463   -1.74869861      10
Ni    -1.71579673    0.01680663    1.73239916      11
Co     1.68178273    1.76617096   -0.01099119      12
Cr     0.03717326    1.78787475    1.74490829      13
Co     0.00853437    1.77190154   -1.77357930      14
Cr    -1.65294709   -0.06408542   -1.74478182      15
Cr    -1.63864889    1.69746239   -0.07822185      16
Co    -1.73609507   -1.73180525   -0.00705769      17
Co     1.70081002   -1.80093596    0.00058516      18
