          18
Lattice="  24.8920   0.0000   0.0000   0.0000  24.8920   0.0000   0.0000   0.0000  24.8920 " ConfE="      -5938.4936" DelE="          0.0000"
Ni     0.07750197    3.50534470   -0.02464266       1
Co     0.04345291   -0.03606762    3.46651100       2
Cr    -3.46468620   -0.02272817   -0.07131716       3
Cr     3.62810907   -0.09509193   -0.06162810       4
Cr     0.06092047   -3.68232758   -0.12330610       5
Cr     0.11249133   -0.08383612   -3.60943894       6
Ni    -1.72252384   -0.06229898    1.74095401       7
Co     1.82237255   -0.08306245    1.69968016       8
Co    -1.66507679    1.73443105   -0.02425921       9
Cr     1.78609158    1.70737609    0.03500420      10
Ni    -1.74671521   -1.87410835   -0.05289650      11
Cr     0.01307663   -1.88331585    1.71862370      12
Cr     0.07744172    1.73858548   -1.82772934      13
Cr     1.77919493   -1.84542471   -0.06542822      14
Cr    -1.73424117   -0.03011960   -1.82534692      15
Co     1.83087659   -0.06298781   -1.80319589      16
Co     0.03311735   -1.79463344   -1.81743376      17
Cr     0.00000000    0.00000000    0.00000000      18
          18
Lattice="  24.8920   0.0000   0.0000   0.0000  24.8920   0.0000   0.0000   0.0000  24.8920 " ConfE="      -5937.9436" DelE="          0.5500"
Ni     0.08876449    3.44641148   -0.00968772       1
Co     0.04531910   -0.05809637    3.39396701       2
Cr    -3.55724207   -0.03895307   -0.11056010       3
Cr     3.68361882   -0.12937442   -0.08735627       4
Cr     0.06915094   -3.66632955   -0.12655084       5
Cr     0.10175946   -0.07836121   -3.58844042       6
Ni    -1.86165780   -0.14049897    1.74335862       7
Co     1.97038811   -0.15647352    1.71770506       8
Co    -1.79539283    1.74849379   -0.04094951       9
Cr     1.94889806    1.75599029    0.01874682      10
Ni    -1.74310433   -1.84763779   -0.03464613      11
Cr     0.01744672   -1.86765164    1.68545473      12
Cr     0.07581032    1.70179441   -1.77401760      13
Cr     1.72421668   -1.77630768   -0.05569201      14
Cr    -1.66599609    0.00028617   -1.70201474      15
Co     1.78649324   -0.03253052   -1.71790303      16
Co     0.03129246   -1.73399273   -1.75256905      17
Cr     0.06240994    0.67392834    0.72263519      18
          18
Lattice="  24.8920   0.0000   0.0000   0.0000  24.8920   0.0000   0.0000   0.0000  24.8920 " ConfE="      -5938.5238" DelE="         -0.0302"
Ni     0.08628168    3.53555249   -0.05113210       1
Co     0.04315209   -0.06222667    3.51111533       2
Cr    -3.51956056   -0.03266296   -0.09091125       3
Cr     3.65595840   -0.11904950   -0.07213410       4
Cr     0.06214027   -3.66282727   -0.13092092       5
Cr     0.10459458   -0.08468972   -3.60487045       6
Ni    -1.73396636   -0.07971990    1.69833779       7
Co     1.84863179   -0.10622952    1.68134240       8
Co    -1.69108668    1.70049176   -0.07939251       9
Cr     1.85623582    1.66418632   -0.07316138      10
Ni    -1.73345837   -1.84291872   -0.06637875      11
Cr     0.04162912   -1.74973517    1.64186723      12
Cr     0.05704354    1.65415073   -1.70971903      13
Cr     1.75467679   -1.80686309   -0.07914180      14
Cr    -1.72445818   -0.03007097   -1.82051135      15
Co     1.82038023   -0.07227781   -1.78668863      16
Co     0.03429332   -1.74862834   -1.78221137      17
Cr     0.07852194    1.55334593    1.54449156      18
