          18
Lattice="  24.8920   0.0000   0.0000   0.0000  24.8920   0.0000   0.0000   0.0000  24.8920 " ConfE="      -5936.6886" DelE="          0.0000"
Ni     0.11293751    0.02309068    3.43433059       1
Ni     0.07049386   -3.44041302   -0.04003360       2
Co     0.09831963    0.08107474   -3.63559807       3
Cr     0.12673219    3.61944500   -0.06817364       4
Co    -3.44872815    0.06992449   -0.04013755       5
Cr     3.67833692    0.05840837   -0.13460791       6
Ni     1.86898214    0.03937997    1.69006687       7
Ni     1.82678835   -1.70603211   -0.04583260       8
Co    -1.62457348    0.04731479    1.69876014       9
Co    -1.67895894   -1.64983765   -0.05333078      10
Cr     0.12002726    1.85715488    1.67955038      11
Co     0.09006991   -1.65890805   -1.89059370      12
Cr     0.01877383    1.73365308   -1.80397381      13
Co    -1.68478101    0.08040016   -1.85171524      14
Co    -1.65903613    1.84029446   -0.07241141      15
Cr     1.83081512    0.01554337   -1.86406030      16
Co     1.88305630    1.79641220   -0.12669341      17
Cr     0.00000000    0.00000000    0.00000000      18
          18
Lattice="  24.8920   0.0000   0.0000   0.0000  24.8920   0.0000   0.0000   0.0000  24.8920 " ConfE="      -5935.7763" DelE="          0.9123"
Ni     0.10509803    0.04196502    3.38928754       1
Ni     0.08349833   -3.42091327   -0.06147890       2
Co     0.10088670    0.07845484   -3.60317909       3
Cr     0.12627505    3.58780409   -0.07697202       4
Co    -3.54196547    0.07437478   -0.05754112       5
Cr     3.76772854    0.07441489   -0.15100596       6
Ni     1.96189682    0.05900380    1.68588079       7
Ni     1.97698662   -1.72604551   -0.08790295       8
Co    -1.76377274    0.10055295    1.72066108       9
Co    -1.84955931   -1.68190618   -0.10747386      10
Cr     0.10166426    1.78928795    1.58969296      11
Co     0.09687029   -1.60696464   -1.77483318      12
Cr    -0.01160492    1.53424293   -1.56620919      13
Co    -1.71122222    0.04853460   -1.81355911      14
Co    -1.68585610    1.78964001   -0.04343552      15
Cr     1.79748839   -0.00791719   -1.79859775      16
Co     1.89897664    1.76162444   -0.12153529      17
Cr    -0.00819566   -0.96542096    0.86865723      18
          18
Lattice="  24.8920   0.0000   0.0000   0.0000  24.8920   0.0000   0.0000   0.0000  24.8920 " ConfE="      -5936.4591" DelE="          0.2296"
Ni     0.09888875    0.08589281    3.48564450       1
Ni     0.07447652   -3.47277564   -0.06932148       2
Co     0.10027218    0.08764886   -3.65157948       3
Cr     0.13486431    3.60888252   -0.07584606       4
Co    -3.49138991    0.06539648   -0.05105964       5
Cr     3.69916777    0.06647216   -0.14256109       6
Ni     1.86828448    0.07484647    1.66966210       7
Ni     1.81746677   -1.65909352   -0.07459727       8
Co    -1.63734248    0.08951013    1.68425468       9
Co    -1.68613154   -1.64973919   -0.04885466      10
Cr     0.09321507    1.76281474    1.58146354      11
Co     0.09131704   -1.62272571   -1.84170460      12
Cr    -0.00671703    1.59569336   -1.63533612      13
Co    -1.67667995    0.06209098   -1.83359267      14
Co    -1.65706424    1.81079100   -0.06983901      15
Cr     1.80627243    0.02295502   -1.87277420      16
Co     1.88806351    1.79178601   -0.14934880      17
Cr    -0.00042574   -1.55832788    1.60775696      18
