          18
Lattice="  24.8920   0.0000   0.0000   0.0000  24.8920   0.0000   0.0000   0.0000  24.8920 " ConfE="      -5924.1418" DelE="          0.0000"
Co    -0.05549227   -0.06043730   -3.57284499       1
Co     3.53449844   -0.05731835    0.00002504       2
Ni    -0.01264465   -0.02691749    3.59719536       3
Co    -3.58088655    0.02362215    0.10980799       4
Co     0.02863928   -3.56509243    0.03970632       5
Ni    -0.01017652    3.49878252    0.01024805       6
Ni    -0.00736954   -1.72573899   -1.74405096       7
Co    -0.04113461    1.74920810   -1.79905271       8
Ni     1.78174002   -1.80005297    0.03893434       9
Ni     1.76283754    1.67997332   -0.02797649      10
Co    -1.84777486   -0.00529023   -1.72459910      11
Ni     1.76282054   -0.03899919    1.83651010      12
Cr    -1.78318557   -0.00753600    1.79452365      13
Co    -1.80395132   -1.75719168    0.08159560      14
Co    -1.82359577    1.76754994    0.02488416      15
Ni     0.00480709   -1.80032698    1.81240289      16
Co    -0.08473762    1.72125876    1.82655998      17
Ni     0.00000000    0.00000000    0.00000000      18
          18
Lattice="  24.8920   0.0000   0.0000   0.0000  24.8920   0.0000   0.0000   0.0000  24.8920 " ConfE="      -5923.4637" DelE="          0.6781"
Co    -0.03601493   -0.06107944   -3.55407324       1
Co     3.48804132   -0.03380604   -0.00808657       2
Ni     0.00054427   -0.03145818    3.59940487       3
Co    -3.57583326    0.01588110    0.06586059       4
Co     0.02253090   -3.61284369    0.05678142       5
Ni    -0.02987770    3.56357032    0.01859318       6
Ni    -0.07383260   -1.92431410   -1.79206614       7
Co    -0.08669646    1.90949107   -1.85909670       8
Ni     1.81943764   -1.93066541    0.09026183       9
Ni     1.74747553    1.85594819    0.08276541      10
Co    -1.72788088   -0.01618450   -1.70919565      11
Ni     1.72280785   -0.03797642    1.76670648      12
Cr    -1.67699257   -0.02094823    1.69607365      13
Co    -1.73312961   -1.71862265    0.06957551      14
Co    -1.76845222    1.73988566    0.00056713      15
Ni     0.02529409   -1.80481116    1.79890714      16
Co    -0.09531068    1.68483868    1.78178756      17
Ni     0.93866182   -0.02194662   -0.97306561      18
          18
Lattice="  24.8920   0.0000   0.0000   0.0000  24.8920   0.0000   0.0000   0.0000  24.8920 " ConfE="      -5924.1449" DelE="         -0.0031"
Co    -0.06033219   -0.05885431   -3.59177796       1
Co     3.54985109   -0.05733101    0.03968092       2
Ni    -0.00857234   -0.03638075    3.62254134       3
Co    -3.60009424    0.01337731    0.09886471       4
Co     0.02726712   -3.58641974    0.04887348       5
Ni    -0.02354932    3.52872509    0.02140793       6
Ni    -0.04498723   -1.73278883   -1.70718160       7
Co    -0.06111076    1.75627326   -1.77101781       8
Ni     1.76398857   -1.80133137    0.05667979       9
Ni     1.67528051    1.68740449    0.04049537      10
Co    -1.79028945    0.00193019   -1.69280292      11
Ni     1.73095016   -0.04878741    1.81596776      12
Cr    -1.72980729   -0.02330799    1.75568974      13
Co    -1.76869402   -1.71514893    0.09868886      14
Co    -1.78671425    1.73170209    0.03781191      15
Ni     0.00684702   -1.79167333    1.80752352      16
Co    -0.10905648    1.67033714    1.81007748      17
Ni     1.70370440    0.00018210   -1.72159439      18
