          19
Lattice="  24.8920   0.0000   0.0000   0.0000  24.8920   0.0000   0.0000   0.0000  24.8920 " ConfE="      -5929.6065" DelE="          0.0000"
Co     3.58838552   -0.02677173    0.01432895       1
Ni     1.78570117    0.82259086   -2.65411204       2
Cr     0.09283106   -3.53848928   -0.03948838       3
Cr    -0.18698065   -0.08933113   -3.51501433       4
Ni     0.03858924    0.01096465    3.59974106       5
Cr     0.02256329    3.55165363   -0.00694091       6
Cr    -3.57186931   -0.02875932    0.06312073       7
Cr     1.83852592   -1.61631957   -0.04527383       8
Cr     0.05477945   -1.78984434   -1.75759138       9
Co     1.80542596   -0.00818378    1.82983561      10
Cr     1.88098388    1.58829149   -0.08183285      11
Ni     0.01687391   -1.78994683    1.79119752      12
Cr    -1.78581047   -1.85188284    0.03412695      13
Ni    -1.81183123   -0.00306595   -1.69919920      14
Ni     0.01285086    1.76824299    1.79112119      15
Cr    -0.06253789    1.86307543   -1.66894769      16
Ni    -1.75980710   -0.00809911    1.79331818      17
Cr    -1.84489815    1.83583705    0.03045596      18
Ni     0.00000000    0.00000000    0.00000000      19
          19
Lattice="  24.8920   0.0000   0.0000   0.0000  24.8920   0.0000   0.0000   0.0000  24.8920 " ConfE="      -5929.0462" DelE="          0.5603"
Co     3.57785102   -0.00943045    0.01683032       1
Ni     1.77964275    1.10470666   -2.87139355       2
Cr     0.06485001   -3.59970926   -0.00490605       3
Cr    -0.13113046   -0.11446384   -3.47888119       4
Ni     0.06167747    0.00990616    3.60045526       5
Cr     0.02966552    3.57220257    0.00964912       6
Cr    -3.57000311   -0.01782938    0.05079613       7
Cr     1.81339615   -1.75550692    0.03535015       8
Cr     0.02045959   -1.96487835   -1.84991174       9
Co     1.79168040   -0.00464655    1.75704717      10
Cr     1.91673158    1.75107133   -0.06957844      11
Ni     0.02683491   -1.80175939    1.80251964      12
Cr    -1.64168948   -1.77120477   -0.01653396      13
Ni    -1.79170828    0.00043229   -1.72166947      14
Ni     0.04316904    1.76616393    1.77393728      15
Cr    -0.11494010    2.04154830   -1.79584369      16
Ni    -1.70938682   -0.01311658    1.75748003      17
Cr    -1.71232917    1.74886316    0.00851511      18
Ni     0.47029883    0.04023911   -0.73406782      19
          19
Lattice="  24.8920   0.0000   0.0000   0.0000  24.8920   0.0000   0.0000   0.0000  24.8920 " ConfE="      -5930.0710" DelE="         -0.4646"
Co     3.57921304   -0.04355913    0.04350731       1
Ni     1.82472307    1.70131422   -3.45224422       2
Cr     0.08994168   -3.55496469   -0.02077152       3
Cr     0.02678584   -0.02525952   -3.42492205       4
Ni     0.04213201    0.00946292    3.60712251       5
Cr     0.03033319    3.52463642   -0.02964711       6
Cr    -3.53791636   -0.01398221    0.05000189       7
Cr     1.84043262   -1.66928669    0.00059330       8
Cr     0.06622456   -1.79963802   -1.74569548       9
Co     1.81347658   -0.01329835    1.85079544      10
Cr     1.89550285    1.60905497   -0.05217984      11
Ni     0.02004818   -1.79658518    1.80601595      12
Cr    -1.77115359   -1.85048087    0.03416706      13
Ni    -1.76580096   -0.00090823   -1.70998581      14
Ni     0.02314279    1.76672054    1.80034687      15
Cr     0.12096977    1.74416008   -1.69819809      16
Ni    -1.74667844   -0.00579251    1.79059732      17
Cr    -1.79632969    1.83302440    0.00192466      18
Ni     0.03590366   -0.01591810    0.00987392      19
