          18
Lattice="  24.8920   0.0000   0.0000   0.0000  24.8920   0.0000   0.0000   0.0000  24.8920 " ConfE="      -5932.2544" DelE="          0.0000"
Co     0.00247312    3.58542567   -0.09466325       1
Cr     3.63283622   -0.01397379   -0.02036447       2
Co     0.00523341   -3.55509862   -0.05321589       3
Cr    -3.57821450   -0.02215324   -0.08058424       4
Cr     0.04215154   -0.01498005   -3.62702147       5
Co     0.05763038    0.04816643    3.44152117       6
Cr     0.24293232    1.68762429   -1.59462972       7
Co     0.05887916    1.80086754    1.63766197       8
Co     1.83973306   -0.03051371   -1.79782630       9
Ni     1.79754524    0.02482322    1.65907579      10
Ni    -1.78171219    1.77779902   -0.08287431      11
Co     1.80272173   -1.80905220   -0.06175619      12
Cr    -1.80448620   -1.77906079   -0.06001199      13
Co    -1.74627566    0.03039336   -1.83311336      14
Co    -1.75335750    0.00259947    1.70255334      15
Ni     0.02489588   -1.77303151   -1.81432152      16
Ni     0.02998981   -1.79122522    1.71517617      17
Cr     0.00000000    0.00000000    0.00000000      18
          18
Lattice="  24.8920   0.0000   0.0000   0.0000  24.8920   0.0000   0.0000   0.0000  24.8920 " ConfE="      -5931.6426" DelE="          0.6118"
Co     0.02245327    3.50299492   -0.11136640       1
Cr     3.56904339    0.01357415   -0.01441533       2
Co     0.02492107   -3.53728799   -0.05641643       3
Cr    -3.57075263   -0.01631576   -0.08244313       4
Cr     0.03557843   -0.05248992   -3.70851589       5
Co     0.04532551    0.04150484    3.52249105       6
Cr    -0.02320101    1.77499693   -1.98092130       7
Co     0.02148045    1.79874340    1.75975286       8
Co     1.85796811   -0.04022321   -1.94101376       9
Ni     1.80473398   -0.00693007    1.80422865      10
Ni    -1.72590057    1.74224549   -0.09532246      11
Co     1.77506922   -1.69631343   -0.05778020      12
Cr    -1.71045831   -1.66391779   -0.05048498      13
Co    -1.72383857    0.01682067   -1.82528622      14
Co    -1.70138272    0.01013661    1.66634376      15
Ni     0.04168171   -1.71083419   -1.79518454      16
Ni     0.03503275   -1.74066967    1.70054003      17
Cr     0.76139091    0.81911129   -0.12046961      18
          18
Lattice="  24.8920   0.0000   0.0000   0.0000  24.8920   0.0000   0.0000   0.0000  24.8920 " ConfE="      -5932.5072" DelE="         -0.2528"
Co    -0.02608186    3.62826939   -0.09698283       1
Cr     3.64972594   -0.04023425   -0.02355084       2
Co     0.00824381   -3.57381923   -0.05311555       3
Cr    -3.59246772   -0.03014083   -0.07767584       4
Cr     0.06175343   -0.03656904   -3.63594338       5
Co     0.04310982    0.03186979    3.48528480       6
Cr     0.07702382    1.63784522   -1.71553619       7
Co     0.03001761    1.77246918    1.65550670       8
Co     1.81563585   -0.00912409   -1.77704025       9
Ni     1.76430994   -0.02601987    1.68094375      10
Ni    -1.73578357    1.73579589   -0.07981165      11
Co     1.79425754   -1.77092135   -0.06662199      12
Cr    -1.75965854   -1.72052458   -0.04574634      13
Co    -1.74637974   -0.00138572   -1.81638360      14
Co    -1.74376853   -0.01667604    1.66826445      15
Ni     0.02516958   -1.74515521   -1.78174075      16
Ni     0.01467723   -1.76760793    1.67750889      17
Cr     1.70788149    1.79799450    0.02888133      18
