          18
Lattice="  24.8920   0.0000   0.0000   0.0000  24.8920   0.0000   0.0000   0.0000  24.8920 " ConfE="      -5932.5192" DelE="          0.0000"
Ni    -0.04319446    0.01827889    3.45223370       1
Cr     3.41198434   -0.01754631    0.04920318       2
Co    -0.08632571    0.04672139   -3.60877083       3
Cr    -3.62812745   -0.03367065   -0.02675120       4
Co    -0.05086186   -3.57091767   -0.05149524       5
Cr    -0.06164621    3.55354422   -0.05756829       6
Co    -0.01955954   -1.80810326    1.72633419       7
Co    -0.05925921    1.81242507    1.71458384       8
Cr     1.70247316   -1.77961397   -0.00133852       9
Co     1.73859820    1.77769766   -0.04736439      10
Cr    -1.84370188   -0.04991743    1.72771021      11
Ni     1.71892323    0.01077549   -1.84996446      12
Ni    -1.84505178   -0.03045944   -1.81321856      13
Cr    -1.79390423   -1.79873876    0.00745617      14
Ni    -1.84610664    1.76609798   -0.03949844      15
Cr    -0.03952132   -1.79065822   -1.85551110      16
Cr    -0.08897563    1.79560263   -1.81917492      17
Ni     0.00000000    0.00000000    0.00000000      18
          18
Lattice="  24.8920   0.0000   0.0000   0.0000  24.8920   0.0000   0.0000   0.0000  24.8920 " ConfE="      -5932.1103" DelE="          0.4089"
Ni    -0.03194891    0.03995711    3.45159359       1
Cr     3.36284304   -0.03846319    0.06379601       2
Co    -0.08016830    0.06778353   -3.63569944       3
Cr    -3.57616068   -0.15416289   -0.00618267       4
Co    -0.06794774   -3.64310873   -0.05728863       5
Cr    -0.14638783    3.62312805   -0.10419096       6
Co    -0.05682459   -1.98006051    1.82100018       7
Co    -0.11378929    1.99954886    1.71358487       8
Cr     1.62678355   -1.92217703   -0.08731223       9
Co     1.72053003    1.94303627   -0.12739283      10
Cr    -1.72903860   -0.02931711    1.69655105      11
Ni     1.66053124    0.01771729   -1.77549570      12
Ni    -1.82281842   -0.02050578   -1.82554205      13
Cr    -1.47767945   -1.65577636    0.01525230      14
Ni    -1.82179512    1.73633576   -0.04913744      15
Cr    -0.03542368   -1.77582650   -1.89362528      16
Cr    -0.09148742    1.78711943   -1.78964213      17
Ni     0.94511635    0.00617208    1.04075474      18
          18
Lattice="  24.8920   0.0000   0.0000   0.0000  24.8920   0.0000   0.0000   0.0000  24.8920 " ConfE="      -5932.5937" DelE="         -0.0745"
Ni    -0.08311563    0.01675697    3.53247545       1
Cr     3.46972316   -0.02531659   -0.02862338       2
Co    -0.08800784    0.06314210   -3.64722787       3
Cr    -3.60752240   -0.11448279   -0.03012735       4
Co    -0.05829190   -3.60822804   -0.05690686       5
Cr    -0.09198283    3.57428728   -0.06848746       6
Co    -0.04724118   -1.82401386    1.75630281       7
Co    -0.09149832    1.79193767    1.68501488       8
Cr     1.57942727   -1.76617601   -0.06663133       9
Co     1.67679817    1.76427950   -0.08018814      10
Cr    -1.78602506   -0.03707299    1.70424660      11
Ni     1.65941400    0.01023653   -1.81000354      12
Ni    -1.82428372   -0.01413518   -1.82721606      13
Cr    -1.53034369   -1.65327280   -0.00774629      14
Ni    -1.83276968    1.73626080   -0.05296604      15
Cr    -0.04737290   -1.77973613   -1.91111672      16
Cr    -0.09794887    1.79570091   -1.81784832      17
Ni     1.63182596   -0.01756859    1.69058686      18
