          18
Lattice="  24.8920   0.0000   0.0000   0.0000  24.8920   0.0000   0.0000   0.0000  24.8920 " ConfE="      -5940.1712" DelE="          0.0000"
Ni     3.54252854   -0.01860707   -0.08580732       1
Cr     0.03607322    3.41876753    0.03100500       2
Co    -0.06044870   -0.01472628   -3.62217283       3
Cr    -0.01178686    0.01787852    3.46213127       4
Cr    -3.55097629   -0.03578743   -0.02256625       5
Co    -0.01023444   -3.56639389   -0.03574726       6
Ni     0.01713786    1.75506478   -1.78940182       7
Ni     1.75815272   -0.02435173   -1.82018366       8
Ni     1.77614264    0.02563465    1.70093663       9
Ni    -1.80079293    1.74385236   -0.03131196      10
Co     0.04036450    1.78955864    1.70117982      11
Ni    -0.01724118   -1.77709891   -1.82960105      12
Ni    -1.78700474   -1.78119352   -0.05091133      13
Cr     1.74311807   -1.80718139   -0.04459337      14
Co    -1.78714705   -0.01632088   -1.83338126      15
Cr     0.00511598   -1.76127067    1.68729986      16
Co    -1.76550830   -0.02367461    1.76954245      17
Co     0.00000000    0.00000000    0.00000000      18
          18
Lattice="  24.8920   0.0000   0.0000   0.0000  24.8920   0.0000   0.0000   0.0000  24.8920 " ConfE="      -5935.6455" DelE="          4.5257"
Ni     3.56570926   -0.03255179   -0.09573310       1
Cr     0.04755740    3.51912786    0.04862199       2
Co    -0.04911891   -0.01583235   -3.61609257       3
Cr    -0.00875783    0.03089123    3.47954497       4
Cr    -3.48611357    0.12681011   -0.15374918       5
Co     0.01425155   -3.64853420   -0.01082506       6
Ni     0.08325539    1.82822375   -1.77328341       7
Ni     1.72215358   -0.03983730   -1.78438599       8
Ni     1.73842599    0.01831687    1.63648704       9
Ni    -1.59849793    1.74559506    0.12828481      10
Co     0.11098704    1.79929762    1.78206012      11
Ni     0.11627245   -1.99187729   -1.86251635      12
Ni    -1.80783963   -1.90316701    0.01783932      13
Cr     1.71368027   -1.81096077   -0.04621927      14
Co    -2.45686803    1.47535738   -2.03307368      15
Cr    -0.00544263   -1.70956787    1.62514387      16
Co    -1.72767526   -0.05911403    1.77013919      17
Co    -1.18167898   -0.21257212   -1.38401730      18
          18
Lattice="  24.8920   0.0000   0.0000   0.0000  24.8920   0.0000   0.0000   0.0000  24.8920 " ConfE="      -5940.3073" DelE="         -0.1361"
Ni     3.53940269   -0.02161529   -0.08627000       1
Cr    -0.01927245    3.42135879    0.03338390       2
Co    -0.06325827   -0.01419375   -3.61676102       3
Cr    -0.01285509    0.01450548    3.46995702       4
Cr    -3.53649237   -0.00787316   -0.02560983       5
Co    -0.00624156   -3.55913186   -0.03803600       6
Ni     0.01288943    1.76188214   -1.79495113       7
Ni     1.77044714   -0.03564484   -1.83521832       8
Ni     1.76920341    0.01479935    1.70044162       9
Ni     0.01949881   -0.00750708   -0.04787604      10
Co     0.03491054    1.78903917    1.69158652      11
Ni    -0.01367254   -1.78752048   -1.84088595      12
Ni    -1.78384166   -1.77577686   -0.05440882      13
Cr     1.77355828   -1.83911672   -0.04558846      14
Co    -1.82140352    1.75413468   -0.03139615      15
Cr     0.00802371   -1.79559234    1.70473414      16
Co    -1.75535372   -0.02257856    1.76297292      17
Co    -1.79048856   -0.01241784   -1.83887018      18
