          18
Lattice="  24.8920   0.0000   0.0000   0.0000  24.8920   0.0000   0.0000   0.0000  24.8920 " ConfE="      -5939.6213" DelE="          0.0000"
Ni    -0.04336173    0.02539634    3.41635920       1
Co     0.02902136    3.52301393   -0.04343702       2
Cr    -0.00372781   -0.04479004   -3.61568384       3
Ni    -0.01115349   -3.58362442   -0.03766925       4
Co    -3.58135256   -0.02609289   -0.07721582       5
Ni     3.53669766   -0.04934497   -0.07122898       6
Cr    -1.80317344   -0.09281860    1.67155355       7
Cr     1.74919658   -0.04231849    1.70854114       8
Ni    -1.73796973    1.74056132   -0.01430377       9
Cr     1.65493133    1.73089971    0.05568408      10
Co    -0.04474138   -1.81563773    1.74717306      11
Co     0.00570174    1.74500510   -1.84676272      12
Co    -0.02404446   -1.76867931   -1.86726201      13
Co    -1.79067259   -1.78490419   -0.05513705      14
Ni     1.73179256   -1.81062446   -0.05472087      15
Cr    -1.72876042   -0.05577932   -1.80467138      16
Co     1.74433426   -0.00899898   -1.80974158      17
Co     0.00000000    0.00000000    0.00000000      18
          18
Lattice="  24.8920   0.0000   0.0000   0.0000  24.8920   0.0000   0.0000   0.0000  24.8920 " ConfE="      -5939.0704" DelE="          0.5509"
Ni    -0.04558814    0.02346616    3.40575820       1
Co     0.02668120    3.48023947   -0.03340796       2
Cr    -0.01500067   -0.03531848   -3.62669833       3
Ni    -0.01008838   -3.59173771   -0.02928237       4
Co    -3.61793161   -0.03482070   -0.08636283       5
Ni     3.55351380   -0.05835709   -0.07285293       6
Cr    -1.87100944   -0.10949177    1.64629834       7
Cr     1.93805048   -0.14560364    1.85582797       8
Ni    -1.84624718    1.76585541   -0.04944058       9
Cr     1.89520241    1.84732907   -0.11915233      10
Co    -0.04518673   -1.75500138    1.71387968      11
Co     0.01196219    1.72479758   -1.78738620      12
Co    -0.02464465   -1.74368032   -1.83135047      13
Co    -1.78354338   -1.77324633   -0.05266764      14
Ni     1.70098218   -1.75853367   -0.03157521      15
Cr    -1.62241387   -0.05032067   -1.68342814      16
Co     1.71184025    0.00268324   -1.76693007      17
Co     0.14802148    0.69510584    0.70762092      18
          18
Lattice="  24.8920   0.0000   0.0000   0.0000  24.8920   0.0000   0.0000   0.0000  24.8920 " ConfE="      -5939.6144" DelE="          0.0069"
Ni    -0.03619615   -0.01164060    3.49616729       1
Co     0.02025736    3.56442957   -0.08507960       2
Cr    -0.01092271   -0.04778035   -3.65691318       3
Ni    -0.01174558   -3.59349504   -0.03738456       4
Co    -3.59079749   -0.03310868   -0.08209019       5
Ni     3.54771196   -0.06008285   -0.08222750       6
Cr    -1.72704464   -0.10565886    1.63092072       7
Cr     1.68333868   -0.03307325    1.63785534       8
Ni    -1.72797442    1.70048373   -0.06072175       9
Cr     1.70588250    1.72264374   -0.06604948      10
Co    -0.04365379   -1.74732004    1.71937071      11
Co     0.00727171    1.72315625   -1.82508264      12
Co    -0.03822638   -1.74807358   -1.87147062      13
Co    -1.76379280   -1.75181489   -0.06189007      14
Ni     1.68856895   -1.77318288   -0.06293450      15
Cr    -1.67288585   -0.08164032   -1.77958051      16
Co     1.70046361   -0.00812974   -1.78419962      17
Co     0.02837313    1.71213167    1.67269900      18
