          18
Lattice="  24.8920   0.0000   0.0000   0.0000  24.8920   0.0000   0.0000   0.0000  24.8920 " ConfE="      -5938.3598" DelE="          0.0000"
Cr    -3.53237904    0.05609691    0.04293797       1
Ni    -0.02048072   -0.00282123   -3.47191508       2
Cr     3.56517846    0.00323079    0.07855788       3
Ni     0.00309787   -0.03591633    3.59973729       4
Ni     0.01480115   -3.56960452    0.03077667       5
Ni     0.03326944    3.53136214    0.05507699       6
Co    -1.79266359   -1.74403734    0.04617432       7
Ni    -1.71880135    1.73237733    0.01497191       8
Ni    -0.01359329   -1.78589553   -1.71625086       9
Cr     0.07100991    1.78357054   -1.73101788      10
Ni    -1.76178416   -0.00243446    1.82996350      11
Ni     1.80347476   -0.02333792   -1.71293234      12
Co     1.79468544   -0.04890067    1.82744200      13
Cr     0.00551719   -1.78950067    1.78235698      14
Co     0.04786803    1.73137623    1.80218882      15
Co     1.79856879   -1.78810539    0.08005911      16
Cr     1.82569587    1.73524651    0.06592685      17
Ni     0.00000000    0.00000000    0.00000000      18
          18
Lattice="  24.8920   0.0000   0.0000   0.0000  24.8920   0.0000   0.0000   0.0000  24.8920 " ConfE="      -5937.2726" DelE="          1.0872"
Cr    -3.52241572    0.05021153   -0.00339695       1
Ni    -0.03407171   -0.01547664   -3.44043652       2
Cr     3.60066761   -0.00983898    0.05945095       3
Ni     0.00678017   -0.00816752    3.52396903       4
Ni     0.02021719   -3.63602065    0.04998659       5
Ni     0.03495279    3.53561251    0.10843491       6
Co    -1.80711635   -1.87300928    0.08439037       7
Ni    -1.84250745    1.88523194    0.09627036       8
Ni     0.03839011   -1.96324613   -1.73729868       9
Cr     0.14280679    1.93825221   -1.69541314      10
Ni    -1.81258132   -0.00605019    1.78087969      11
Ni     1.68193248   -0.03103371   -1.61715904      12
Co     1.94333201   -0.12124770    1.84374013      13
Cr     0.01195115   -1.66045775    1.63262344      14
Co     0.18115985    1.15401761    1.08614099      15
Co     1.74487181   -1.78704882    0.08955565      16
Cr     1.95402945    1.77089715    0.00697881      17
Ni    -0.97559119    0.04699010   -1.03411390      18
          18
Lattice="  24.8920   0.0000   0.0000   0.0000  24.8920   0.0000   0.0000   0.0000  24.8920 " ConfE="      -5938.5928" DelE="         -0.2330"
Cr    -3.52725450    0.05313491    0.07625325       1
Ni     0.01523660   -0.01745685   -3.51503154       2
Cr     3.54153712    0.00847076    0.09096861       3
Ni    -0.00006024   -0.00927145    3.57828485       4
Ni     0.02267697   -3.57374913    0.03620620       5
Ni     0.03934052    3.49199485    0.08742002       6
Co    -1.75359060   -1.74845349    0.07877404       7
Ni    -1.70102393    1.75606855    0.07006885       8
Ni     0.02224918   -1.79471891   -1.69790456       9
Cr     0.08981011    1.77887908   -1.73928243      10
Ni    -1.74223051    0.03075682    1.82265219      11
Ni     1.78866997   -0.02793997   -1.71456863      12
Co     1.78626919   -0.00706411    1.84862729      13
Cr     0.01274264   -1.79879156    1.79009883      14
Co     0.09917979    0.07736842    0.11896176      15
Co     1.80077587   -1.78084771    0.09492398      16
Cr     1.79324789    1.69232818    0.09541099      17
Ni    -1.71802605   -0.00295939   -1.71457426      18
