          18
Lattice="  24.8920   0.0000   0.0000   0.0000  24.8920   0.0000   0.0000   0.0000  24.8920 " ConfE="      -5923.0648" DelE="          0.0000"
Ni     0.01700751   -3.47627715   -0.00944289       1
Co     3.52387093    0.01767138   -0.02321755       2
Co    -0.05031128   -0.00105023   -3.57924119       3
Co    -0.05263266    0.02459966    3.51044409       4
Co    -0.04678041    3.55209083   -0.01025806       5
Co    -3.59776438    0.02653343   -0.05522567       6
Ni     1.74098971   -0.02414111   -1.75516929       7
Ni     0.00710857   -1.76337936   -1.74572762       8
Co     1.69709406   -0.00681737    1.71663239       9
Cr     0.01036829   -1.72239487    1.72435618      10
Ni    -0.04851187    1.77392601   -1.80622572      11
Co     1.74332651    1.81783053   -0.03206273      12
Co    -1.82015339   -1.72390577   -0.02791707      13
Cr    -1.84707183   -0.00921292   -1.78695468      14
Cr    -0.06513497    1.77124632    1.74340892      15
Cr    -1.87770735    0.02771049    1.70562686      16
Co    -1.83013131    1.77085572   -0.01782824      17
Cr     0.00000000    0.00000000    0.00000000      18
          18
Lattice="  24.8920   0.0000   0.0000   0.0000  24.8920   0.0000   0.0000   0.0000  24.8920 " ConfE="      -5922.4905" DelE="          0.5743"
Ni     0.00863118   -3.43214816   -0.00948645       1
Co     3.47265744   -0.00487524   -0.01535081       2
Co    -0.06592447    0.02907442   -3.65180746       3
Co    -0.05974553    0.02556623    3.56301227       4
Co    -0.03025037    3.54067802   -0.00468075       5
Co    -3.62131166    0.02984269   -0.06509422       6
Ni     1.73605762    0.01862741   -1.89060413       7
Ni    -0.06601952   -1.75672627   -1.89263178       8
Co     1.78092571    0.06182638    1.89615712       9
Cr    -0.05827614   -1.75108185    1.92670177      10
Ni    -0.05580975    1.72521153   -1.78711003      11
Co     1.69832464    1.71299522   -0.03032883      12
Co    -1.73418343   -1.65614693   -0.03176092      13
Cr    -1.80262248   -0.01293533   -1.72452659      14
Cr    -0.03746683    1.59964491    1.63640347      15
Cr    -1.80540506   -0.00151543    1.61063120      16
Co    -1.80078954    1.73478936   -0.01986230      17
Cr     0.88896425   -0.89595688    0.07713050      18
          18
Lattice="  24.8920   0.0000   0.0000   0.0000  24.8920   0.0000   0.0000   0.0000  24.8920 " ConfE="      -5923.4297" DelE="         -0.3648"
Ni    -0.04033439   -3.51174494   -0.01203269       1
Co     3.56309793    0.02948587   -0.01984405       2
Co    -0.06093293    0.01206804   -3.60708130       3
Co    -0.05515598    0.02546998    3.54191376       4
Co    -0.04776722    3.56909974   -0.00827998       5
Co    -3.64707889    0.03833474   -0.06840173       6
Ni     1.70241464    0.00935590   -1.75352999       7
Ni    -0.04471728   -1.70904704   -1.73658145       8
Co     1.68382144    0.02390328    1.72338016       9
Cr    -0.05021578   -1.62608126    1.68285464      10
Ni    -0.07071756    1.74588408   -1.77723702      11
Co     1.71571427    1.77121168   -0.02677013      12
Co    -1.78359282   -1.66490976   -0.02029963      13
Cr    -1.85934493    0.00136251   -1.75331864      14
Cr    -0.06639844    1.66755774    1.66919197      15
Cr    -1.85348225    0.03105226    1.63756575      16
Co    -1.81302682    1.73864556   -0.02096606      17
Cr     1.75598634   -1.72185908    0.01102515      18
