          18
Lattice="  24.8920   0.0000   0.0000   0.0000  24.8920   0.0000   0.0000   0.0000  24.8920 " ConfE="      -5949.6062" DelE="          0.0000"
Co    -3.42197567   -0.02875414   -0.04641859       1
Cr     0.00644660   -3.47142224   -0.00968331       2
Cr     3.67638455   -0.08390186   -0.02791349       3
Cr     0.10746108    3.53984851   -0.07147514       4
Cr     0.10516844    0.01227211   -3.63347765       5
Ni     0.09858271   -0.00258697    3.49216218       6
Ni    -1.69353129   -0.04113766   -1.81712535       7
Co    -1.67519299    0.00582839    1.66675721       8
Ni     0.05884319   -1.75695902   -1.81535589       9
Ni     0.08090101   -1.75085617    1.68413285      10
Cr    -1.69113552    1.80597301   -0.08127081      11
Ni     1.87428688   -1.76518550   -0.07064174      12
Ni     1.86374019    1.72396917   -0.05332980      13
Co     0.10130815    1.75929093   -1.81227719      14
Cr     0.07963099    1.75259571    1.72877065      15
Ni     1.85516496   -0.01429067   -1.86065168      16
Co     1.90055342   -0.01813382    1.70575925      17
Cr     0.00000000    0.00000000    0.00000000      18
          18
Lattice="  24.8920   0.0000   0.0000   0.0000  24.8920   0.0000   0.0000   0.0000  24.8920 " ConfE="      -5948.9589" DelE="          0.6473"
Co    -3.39118425   -0.02685530   -0.05055454       1
Cr     0.01742827   -3.47069624   -0.01906184       2
Cr     3.63968062   -0.10343162   -0.03269432       3
Cr     0.10392591    3.53051377   -0.06907288       4
Cr     0.12002901    0.03609289   -3.70738877       5
Ni     0.09733856    0.00568920    3.54131908       6
Ni    -1.70587018   -0.00424925   -1.95501901       7
Co    -1.72532033    0.05085858    1.84054741       8
Ni     0.10383268   -1.76006369   -1.94369118       9
Ni     0.13659531   -1.77641720    1.82704392      10
Cr    -1.65428960    1.75152749   -0.09401458      11
Ni     1.78186042   -1.74166389   -0.08083772      12
Ni     1.81860906    1.68234309   -0.06688200      13
Co     0.07384338    1.71312117   -1.78163709      14
Cr     0.05357780    1.61881364    1.62499496      15
Ni     1.84012225   -0.01963623   -1.88484380      16
Co     1.86288694   -0.02571397    1.69860752      17
Cr    -0.87585780   -0.87719196    0.00445725      18
          18
Lattice="  24.8920   0.0000   0.0000   0.0000  24.8920   0.0000   0.0000   0.0000  24.8920 " ConfE="      -5949.8756" DelE="         -0.2694"
Co    -3.48110849    0.01188711   -0.04791642       1
Cr     0.05732976   -3.52233558   -0.03266746       2
Cr     3.66561101   -0.08845842   -0.02642575       3
Cr     0.11168625    3.54965885   -0.07404737       4
Cr     0.11613400    0.02130490   -3.65299416       5
Ni     0.10192149    0.00158299    3.50592944       6
Ni    -1.66737348   -0.01073008   -1.82137142       7
Co    -1.63603821    0.03850754    1.63295975       8
Ni     0.09105116   -1.73655467   -1.83421582       9
Ni     0.09462588   -1.72853540    1.65873381      10
Cr    -1.61656714    1.74529766   -0.07731023      11
Ni     1.84441098   -1.74742726   -0.08175769      12
Ni     1.83621909    1.70496631   -0.05574703      13
Co     0.10125653    1.75049405   -1.79093431      14
Cr     0.07215741    1.71841286    1.68300121      15
Ni     1.86181344   -0.00500133   -1.87415350      16
Co     1.90199335   -0.02070439    1.69258173      17
Cr    -1.68867195   -1.75196343   -0.07211689      18
