          18
Lattice="  24.8920   0.0000   0.0000   0.0000  24.8920   0.0000   0.0000   0.0000  24.8920 " ConfE="      -5938.2141" DelE="          0.0000"
Ni     0.00521724    0.01704662    3.46870617       1
Ni    -3.59107600   -0.02436499   -0.02190570       2
Co     3.52236666    0.05340179    0.01584728       3
Cr    -0.06633454    3.60567349   -0.01728458       4
Cr    -0.02620805   -3.54493724    0.02403855       5
Co    -0.03479573    0.04464935   -3.57610262       6
Ni    -0.01623429    1.80506156    1.73538485       7
Ni     1.75633171    1.79667440    0.00768402       8
Ni     1.74898604   -1.72372148    0.03871041       9
Cr    -0.01651142   -1.80302512    1.74340652      10
Ni    -1.82147275    0.00274126    1.75651395      11
Ni    -1.80081110    1.77259180   -0.00644724      12
Co    -0.04473852    1.82733116   -1.79960052      13
Co    -0.04324207   -1.77769397   -1.81468155      14
Co     1.74683478    0.03625382   -1.82327938      15
Co    -1.77653583   -1.80422303   -0.01428802      16
Co    -1.81866385   -0.01348764   -1.82164118      17
Ni     0.00000000    0.00000000    0.00000000      18
          18
Lattice="  24.8920   0.0000   0.0000   0.0000  24.8920   0.0000   0.0000   0.0000  24.8920 " ConfE="      -5937.6679" DelE="          0.5462"
Ni     0.01693390    0.02247638    3.41925604       1
Ni    -3.58777040   -0.02440343   -0.01593187       2
Co     3.47764826    0.04767190    0.02813554       3
Cr    -0.08443742    3.67668276   -0.04079887       4
Cr    -0.02195484   -3.64700751   -0.01196174       5
Co    -0.03273379    0.05389857   -3.57854833       6
Ni    -0.08171459    1.98032177    1.76408274       7
Ni     1.77300925    1.92881010   -0.01450477       8
Ni     1.77275242   -1.89528896   -0.00315144       9
Cr    -0.07621092   -1.95849907    1.74960539      10
Ni    -1.76933148    0.00845240    1.71934532      11
Ni    -1.78565946    1.77925263   -0.01509936      12
Co    -0.04227672    1.83332791   -1.77615699      13
Co    -0.03875206   -1.78141487   -1.78836159      14
Co     1.69083028    0.02959046   -1.73714181      15
Co    -1.71830281   -1.79633198   -0.00328675      16
Co    -1.78365268   -0.01311194   -1.78843542      17
Ni     0.64338460   -0.00313867    0.74042115      18
          18
Lattice="  24.8920   0.0000   0.0000   0.0000  24.8920   0.0000   0.0000   0.0000  24.8920 " ConfE="      -5938.2868" DelE="         -0.0727"
Ni    -0.02965497    0.01245376    3.50688316       1
Ni    -3.59963582   -0.02740969   -0.01953767       2
Co     3.56228877    0.04568964   -0.02765088       3
Cr    -0.07931176    3.64206847   -0.02941866       4
Cr    -0.02591362   -3.60992180    0.00399988       5
Co    -0.04273406    0.05382232   -3.59471943       6
Ni    -0.03417187    1.80578210    1.70809058       7
Ni     1.73541318    1.81784975   -0.02732375       8
Ni     1.70246259   -1.72790654   -0.02132647       9
Cr    -0.05652313   -1.80560349    1.68196629      10
Ni    -1.77882075   -0.00102874    1.72765542      11
Ni    -1.77229509    1.74648278   -0.01879980      12
Co    -0.04930586    1.81454833   -1.78492498      13
Co    -0.05885035   -1.76038087   -1.80029152      14
Co     1.70375285    0.04039876   -1.77964372      15
Co    -1.72688872   -1.78435506   -0.00645679      16
Co    -1.80192220   -0.01658353   -1.80314023      17
Ni     1.71844053    0.02751653    1.68777360      18
