          18
Lattice="  24.8920   0.0000   0.0000   0.0000  24.8920   0.0000   0.0000   0.0000  24.8920 " ConfE="      -5948.0770" DelE="          0.0000"
Cr    -0.01458737   -3.51584157    0.00342067       1
Ni     3.45082660    0.00130747   -0.02768774       2
Ni    -0.02900477    3.57590489    0.00396880       3
Cr    -3.60961474    0.04422723   -0.01862192       4
Co    -0.01695991    0.06265112   -3.56879383       5
Ni    -0.01786190    0.06305261    3.56095347       6
Ni    -0.02484314   -1.73729121   -1.75481312       7
Cr     0.03773524   -1.73491401    1.74326216       8
Cr     1.71264831    0.02650040   -1.81946888       9
Co     1.74974320    0.00293180    1.77751805      10
Ni    -1.80585166   -1.72708470    0.00228556      11
Cr     1.73659221    1.80281682    0.02260235      12
Co    -1.81957040    1.80975312    0.00876249      13
Co    -1.83919176    0.06915964   -1.74128391      14
Cr    -1.80330668    0.10132353    1.75841394      15
Ni    -0.04246408    1.80390003   -1.76773461      16
Ni    -0.01471234    1.81007571    1.78807887      17
Ni     0.00000000    0.00000000    0.00000000      18
          18
Lattice="  24.8920   0.0000   0.0000   0.0000  24.8920   0.0000   0.0000   0.0000  24.8920 " ConfE="      -5947.6507" DelE="          0.4262"
Cr     0.03026087   -3.46138028   -0.01105839       1
Ni     3.38220365   -0.00658552   -0.03697763       2
Ni    -0.02931751    3.58339713    0.00739236       3
Cr    -3.61491297    0.03612490   -0.01556795       4
Co    -0.02795060    0.06281592   -3.60815945       5
Ni    -0.02186133    0.07977811    3.61183123       6
Ni    -0.07764764   -1.76846698   -1.90680758       7
Cr    -0.00248694   -1.75352852    1.89470942       8
Cr     1.71928440    0.05844009   -1.98338289       9
Co     1.82676628    0.07366998    1.94747924      10
Ni    -1.73969355   -1.70717796   -0.00329191      11
Cr     1.69479723    1.77217553    0.03408464      12
Co    -1.77869029    1.76058671    0.02888559      13
Co    -1.80781268    0.06031119   -1.72664439      14
Cr    -1.71471397    0.08538855    1.70557974      15
Ni    -0.04062404    1.77724185   -1.75735010      16
Ni     0.00276457    1.80145909    1.79873121      17
Ni     0.59158264   -0.58640485   -0.00016865      18
          18
Lattice="  24.8920   0.0000   0.0000   0.0000  24.8920   0.0000   0.0000   0.0000  24.8920 " ConfE="      -5947.6695" DelE="          0.4074"
Cr     0.03671470   -3.45506741   -0.00992242       1
Ni     3.37736127   -0.03059923   -0.03135094       2
Ni    -0.02357899    3.56638978    0.00740315       3
Cr    -3.61188620    0.03775117   -0.00787210       4
Co    -0.02805874    0.06595197   -3.61698697       5
Ni    -0.03471400    0.08604761    3.63229307       6
Ni    -0.09114232   -1.75876992   -1.92338985       7
Cr    -0.03082556   -1.73229279    1.92409000       8
Cr     1.71695538    0.06041077   -1.99044698       9
Co     1.82543214    0.06919674    1.97190120      10
Ni    -1.71655246   -1.68438473    0.00656396      11
Cr     1.67793310    1.72823425    0.03533804      12
Co    -1.76840712    1.74342055    0.03353645      13
Co    -1.80931632    0.06356446   -1.73130115      14
Cr    -1.73811537    0.10082933    1.73130143      15
Ni    -0.04271486    1.78069871   -1.77048062      16
Ni     0.00149855    1.79262877    1.80851004      17
Ni     0.75683454   -0.75592332    0.00248296      18
