          18
Lattice="  24.8920   0.0000   0.0000   0.0000  24.8920   0.0000   0.0000   0.0000  24.8920 " ConfE="      -5940.7128" DelE="          0.0000"
Co    -0.01911904   -3.58326699   -0.05080861       1
Cr    -0.04005032    0.04943833    3.49020589       2
Co     0.03583735    3.54785528   -0.05908592       3
Cr     0.00172901    0.04461893   -3.64585069       4
Cr    -3.48024261   -0.00202189    0.01338814       5
Co     3.57497997   -0.02012677   -0.04729361       6
Cr    -1.70049793   -1.76764736    0.05345951       7
Ni     1.73561343   -1.80773103    0.02677678       8
Co    -1.71263183    0.00391009    1.74165102       9
Co     1.72610384   -0.01011043    1.73862332      10
Ni    -0.00231430   -1.79100530   -1.83869366      11
Cr    -0.02601678    1.82149448    1.74455738      12
Co     0.03544747    1.80784024   -1.83001202      13
Cr    -1.72918275    0.05664843   -1.85368199      14
Cr     1.76755591    0.00043788   -1.79560435      15
Cr    -1.75466409    1.81308692   -0.07557037      16
Cr     1.82344985    1.77293397   -0.03624728      17
Cr     0.00000000    0.00000000    0.00000000      18
          18
Lattice="  24.8920   0.0000   0.0000   0.0000  24.8920   0.0000   0.0000   0.0000  24.8920 " ConfE="      -5940.1591" DelE="          0.5536"
Co     0.01052380   -3.58607650   -0.03520674       1
Cr    -0.04250723    0.04915395    3.51994960       2
Co     0.02128901    3.58729023   -0.05179918       3
Cr    -0.00729860    0.00811328   -3.59948877       4
Cr    -3.56592352    0.02035184   -0.00035725       5
Co     3.61120709    0.01758361   -0.07373618       6
Cr    -1.87048396   -1.83051000   -0.03988947       7
Ni     1.90706966   -1.83745741   -0.05575893       8
Co    -1.84625015    0.07067645    1.72064365       9
Co     1.83069790    0.03559677    1.71216188      10
Ni    -0.00063493   -1.83216351   -1.76001535      11
Cr    -0.03826440    1.74684148    1.74144235      12
Co     0.01848941    1.81915141   -1.82093394      13
Cr    -1.59689905    0.01345733   -1.69444729      14
Cr     1.59175470   -0.01409538   -1.67461784      15
Cr    -1.65344465    1.76768775   -0.04533250      16
Cr     1.64058567    1.70460649   -0.02645671      17
Cr    -0.03256775   -1.10190515    1.01388601      18
          18
Lattice="  24.8920   0.0000   0.0000   0.0000  24.8920   0.0000   0.0000   0.0000  24.8920 " ConfE="      -5940.8587" DelE="         -0.1459"
Co    -0.04006724   -3.59745373   -0.08113073       1
Cr    -0.03375556    0.04910494    3.57819788       2
Co     0.01146628    3.58239553   -0.07035896       3
Cr     0.02255835    0.03292351   -3.72783574       4
Cr    -3.54413978   -0.00711169    0.03036025       5
Co     3.57044785    0.00890068   -0.06805783       6
Cr    -1.66071667   -1.54364509   -0.03370737       7
Ni     1.74660322   -1.76943135   -0.03514449       8
Co    -1.71415039    0.03959204    1.73822940       9
Co     1.70618302    0.01329178    1.69529143      10
Ni     0.01361744   -1.79290518   -1.83886000      11
Cr    -0.02767295    1.75902711    1.73500735      12
Co     0.02779514    1.81305829   -1.86550705      13
Cr    -1.61035530    0.05144250   -1.87112877      14
Cr     1.66561977    0.02616082   -1.79295944      15
Cr    -1.63860406    1.67770314   -0.08084181      16
Cr     1.62699225    1.70664694   -0.05415091      17
Cr    -0.00872570   -1.78550072    1.71330465      18
