          18
Lattice="  24.8920   0.0000   0.0000   0.0000  24.8920   0.0000   0.0000   0.0000  24.8920 " ConfE="      -5941.6031" DelE="          0.0000"
Ni    -0.05574509    0.00118764   -3.45343912       1
Ni    -3.57340377    0.03575203    0.10151648       2
Ni    -0.05073872    0.01417748    3.66020023       3
Co     0.01039383    3.52595528    0.05330085       4
Cr     3.51906208   -0.03215330    0.09888686       5
Cr    -0.09179398   -3.52391198    0.10433864       6
Ni    -1.76826006    1.78889875    0.07230912       7
Cr     1.69799407   -0.00055990   -1.66051650       8
Cr     1.67704375    1.78388703    0.04322084       9
Cr    -1.75966749    0.06045004   -1.65181845      10
Ni    -0.04389433    1.79373615    1.88229250      11
Ni    -1.81689140    0.03948445    1.85980607      12
Cr    -0.08462908   -1.82831961   -1.71885104      13
Cr     1.73726127   -1.80543146    0.07445619      14
Co     1.72253834   -0.02767180    1.81651821      15
Co    -1.78327680   -1.77785229    0.06257482      16
Co    -0.00980699   -1.78893168    1.83096486      17
Co     0.00000000    0.00000000    0.00000000      18
          18
Lattice="  24.8920   0.0000   0.0000   0.0000  24.8920   0.0000   0.0000   0.0000  24.8920 " ConfE="      -5941.1190" DelE="          0.4841"
Ni    -0.04609823   -0.00127903   -3.42195087       1
Ni    -3.61722274    0.02587360    0.11499791       2
Ni    -0.04641981    0.01497536    3.66062911       3
Co     0.00328735    3.49062589    0.04897645       4
Cr     3.62136271   -0.04898852    0.12727771       5
Cr    -0.08390563   -3.54666280    0.10819590       6
Ni    -1.87542717    1.81897993    0.12586496       7
Cr     1.91084844   -0.06088865   -1.74225214       8
Cr     1.86300749    1.78149880    0.10001226       9
Cr    -1.89525754    0.04157651   -1.65785092      10
Ni    -0.04008116    1.77306700    1.83607188      11
Ni    -1.81289582    0.04010231    1.84001299      12
Cr    -0.09070254   -1.77201281   -1.66102034      13
Cr     1.66975613   -1.68984140    0.06342503      14
Co     1.70043289   -0.01524431    1.75411578      15
Co    -1.76507653   -1.73407927    0.04265112      16
Co    -0.01205190   -1.75894607    1.78240155      17
Co     0.07224788    0.66928188   -0.68450357      18
          18
Lattice="  24.8920   0.0000   0.0000   0.0000  24.8920   0.0000   0.0000   0.0000  24.8920 " ConfE="      -5941.6901" DelE="         -0.0870"
Ni    -0.05684154   -0.02628328   -3.48263591       1
Ni    -3.60044999    0.03391385    0.11127170       2
Ni    -0.04747721    0.01225434    3.66233730       3
Co    -0.01542495    3.57139831    0.08519438       4
Cr     3.59892702   -0.04836348    0.11435074       5
Cr    -0.08446790   -3.56401698    0.12232778       6
Ni    -1.79939853    1.78617258    0.11240500       7
Cr     1.70034447   -0.04959458   -1.62755438       8
Cr     1.70552095    1.72449146    0.08259746       9
Cr    -1.75928178    0.02761915   -1.60534380      10
Ni    -0.04366176    1.78456755    1.84909670      11
Ni    -1.80676570    0.03801170    1.84783042      12
Cr    -0.08190735   -1.76288745   -1.64217032      13
Cr     1.70858836   -1.76660455    0.10933560      14
Co     1.69494373   -0.02496965    1.75817196      15
Co    -1.74780870   -1.73698644    0.05393910      16
Co    -0.00405495   -1.78212380    1.79624154      17
Co    -0.00769911    1.67876191   -1.58899529      18
