          18
Lattice="  24.8920   0.0000   0.0000   0.0000  24.8920   0.0000   0.0000   0.0000  24.8920 " ConfE="      -5949.2058" DelE="          0.0000"
Cr    -0.01288020    0.10674975    3.46951452       1
Cr    -3.55918097   -0.00596622    0.01097593       2
Co     3.62468799    0.01453267   -0.06104197       3
Co    -0.00757908   -0.01064441   -3.58441859       4
Co     0.00247536   -3.56200124   -0.01700707       5
Co     0.02469158    3.51999295   -0.04088054       6
Ni     0.02631718   -1.71119472    1.75338912       7
Ni    -1.77839741    1.72399585    0.00752171       8
Ni    -1.76256661   -0.00126691   -1.79262134       9
Co     0.01210022    1.72878453    1.78129942      10
Cr    -1.79241032   -1.72947998    0.09300098      11
Ni     1.79732677   -0.01745166   -1.78477710      12
Ni     1.78919804    1.75434369   -0.01313467      13
Ni     1.81848151   -1.76546651   -0.01469039      14
Cr     1.85605388    0.00447722    1.76012975      15
Cr    -0.03537866   -1.80269331   -1.78827725      16
Cr    -0.00069183    1.79977844   -1.81904273      17
Ni     0.00000000    0.00000000    0.00000000      18
          18
Lattice="  24.8920   0.0000   0.0000   0.0000  24.8920   0.0000   0.0000   0.0000  24.8920 " ConfE="      -5948.5449" DelE="          0.6609"
Cr    -0.01160872    0.07206146    3.39434754       1
Cr    -3.50668783    0.01706360    0.04634125       2
Co     3.63415009    0.01370608   -0.05284050       3
Co    -0.02127937   -0.01485870   -3.59022711       4
Co     0.02921323   -3.62076324   -0.03871034       5
Co     0.02398252    3.55168081   -0.04820180       6
Ni     0.10290463   -1.88056919    1.75416144       7
Ni    -1.83157334    1.88605229   -0.04832137       8
Ni    -1.74793794    0.01090552   -1.72546981       9
Co     0.02632093    1.89793498    1.82530832      10
Cr    -1.78675817   -1.92209307    0.02487523      11
Ni     1.76650919   -0.01455209   -1.74018484      12
Ni     1.73450772    1.72667929    0.00319792      13
Ni     1.82957642   -1.77625110   -0.01096163      14
Cr     1.78073775    0.00196557    1.72182424      15
Cr    -0.02611282   -1.70820379   -1.69617967      16
Cr    -0.01771969    1.75038503   -1.76707826      17
Ni    -0.70270302   -0.00863856    0.64489183      18
          18
Lattice="  24.8920   0.0000   0.0000   0.0000  24.8920   0.0000   0.0000   0.0000  24.8920 " ConfE="      -5949.4025" DelE="         -0.1968"
Cr     0.01792048    0.07463965    3.52502315       1
Cr    -3.60553409   -0.01844590   -0.04106911       2
Co     3.62826603    0.01887692   -0.05695504       3
Co    -0.00781048   -0.00650802   -3.61441130       4
Co     0.01171312   -3.59387097   -0.03174712       5
Co     0.03028506    3.54520450   -0.04251327       6
Ni     0.03488509   -1.70555558    1.70559933       7
Ni    -1.74832764    1.73838822   -0.03164441       8
Ni    -1.73023070    0.01420837   -1.76370950       9
Co     0.03489394    1.70277096    1.74278888      10
Cr    -1.74192442   -1.75911816   -0.04391569      11
Ni     1.77055786   -0.00686759   -1.77229682      12
Ni     1.74422457    1.72010956   -0.01829787      13
Ni     1.79096883   -1.73277618   -0.01947515      14
Cr     1.78439064    0.00938208    1.74638573      15
Cr    -0.01425786   -1.74357101   -1.76829066      16
Cr     0.00696049    1.78145475   -1.81114134      17
Ni    -1.75209301   -0.01561893    1.70923651      18
