          18
Lattice="  24.8920   0.0000   0.0000   0.0000  24.8920   0.0000   0.0000   0.0000  24.8920 " ConfE="      -5938.0842" DelE="          0.0000"
Ni     3.55611971   -0.05328392    0.01355440       1
Ni     0.02750649   -3.61442672    0.00417675       2
Ni    -0.01211814   -0.05407777   -3.54616842       3
Ni     0.00426790   -0.04164212    3.52067684       4
Co     0.01956182    3.39465348    0.00201554       5
Cr    -3.56837898   -0.08489575   -0.03785313       6
Ni     1.76559404   -0.05140481   -1.74311491       7
Ni     1.78877669   -0.04551338    1.76615202       8
Ni    -1.76719302   -0.07779647   -1.78173761       9
Ni    -1.78069620   -0.06131073    1.77760208      10
Ni    -1.76309479   -1.84484134   -0.01012443      11
Ni     1.78734949   -1.84999891    0.02069682      12
Cr     0.01328840    1.68853732   -1.65677141      13
Cr     0.05535713    1.69886204    1.62869894      14
Cr    -1.84980191    1.70847298   -0.00328182      15
Co     0.01392914   -1.86090010   -1.78750312      16
Co    -0.00632292   -1.85827648    1.79197736      17
Co     0.00000000    0.00000000    0.00000000      18
          18
Lattice="  24.8920   0.0000   0.0000   0.0000  24.8920   0.0000   0.0000   0.0000  24.8920 " ConfE="      -5937.6293" DelE="          0.4548"
Ni     3.50814070   -0.04435079    0.00951445       1
Ni     0.03265338   -3.63006416   -0.00265058       2
Ni    -0.01484345   -0.07969426   -3.61622394       3
Ni    -0.00021632   -0.08187978    3.58636658       4
Co    -0.03033566    3.44474082    0.00228433       5
Cr    -3.53643700   -0.05114453   -0.03569552       6
Ni     1.75616059   -0.10490466   -1.83459007       7
Ni     1.77932403   -0.09302359    1.84716230       8
Ni    -1.70147402   -0.06789747   -1.76482476       9
Ni    -1.71943226   -0.05163752    1.76194346      10
Ni    -1.71030855   -1.80309159   -0.01293275      11
Ni     1.74480479   -1.81698891    0.01766341      12
Cr    -0.07593637    1.73597340   -1.94322706      13
Cr    -0.03903237    1.75982701    1.93007411      14
Cr    -1.72440957    1.69612885   -0.01527420      15
Co     0.01621858   -1.86772963   -1.81363334      16
Co     0.00124332   -1.87275422    1.80753050      17
Co     0.84059693    1.11577824   -0.00661248      18
          18
Lattice="  24.8920   0.0000   0.0000   0.0000  24.8920   0.0000   0.0000   0.0000  24.8920 " ConfE="      -5937.8485" DelE="          0.2356"
Ni     3.56518684   -0.07761138    0.01428183       1
Ni     0.02748238   -3.63908529    0.00119578       2
Ni    -0.01889138   -0.05835502   -3.56550733       3
Ni     0.00245138   -0.06879364    3.54461214       4
Co    -0.02382406    3.50157873    0.01849325       5
Cr    -3.59071139   -0.09063397   -0.04297233       6
Ni     1.73252494   -0.08590506   -1.74315598       7
Ni     1.77141990   -0.10212958    1.78443754       8
Ni    -1.72607583   -0.07516384   -1.73869878       9
Ni    -1.74707761   -0.08029969    1.74745427      10
Ni    -1.74263341   -1.83865911   -0.01044582      11
Ni     1.76136841   -1.83841056    0.01827767      12
Cr    -0.00625143    1.67107289   -1.65391724      13
Cr     0.00936444    1.65012519    1.66050111      14
Cr    -1.77087755    1.68837705    0.00646447      15
Co     0.00643094   -1.86797246   -1.78732328      16
Co    -0.00715341   -1.87765083    1.79048759      17
Co     1.63807160    1.64849148    0.03410695      18
