          18
Lattice="  24.8920   0.0000   0.0000   0.0000  24.8920   0.0000   0.0000   0.0000  24.8920 " ConfE="      -5939.9990" DelE="          0.0000"
Cr     0.06860723    0.02421338    3.17764345       1
Cr     0.04472401    3.19287888    0.01968509       2
Ni     0.03253088   -0.13552117   -3.74347647       3
Ni     0.01967461   -3.67853845   -0.14664774       4
Ni    -3.51089715   -0.13024586   -0.12191781       5
Cr     3.60365862   -0.13218694   -0.17351497       6
Co    -1.69495683   -0.10788729    1.60799524       7
Co     1.80958807   -0.06973825    1.55867023       8
Co    -1.69497455    1.65534936   -0.14039015       9
Cr     1.81285677    1.61153706   -0.15190350      10
Cr     0.07468522   -1.92649646    1.64461629      11
Co     0.05788080    1.65303551   -1.96209916      12
Co     0.02303068   -1.84029292   -1.88350479      13
Co    -1.72303290   -1.88893154   -0.13131934      14
Ni     1.81435112   -1.90168627   -0.16046134      15
Cr    -1.73359608   -0.13000727   -1.88506290      16
Cr     1.82997758   -0.14405012   -1.98542991      17
Cr     0.00000000    0.00000000    0.00000000      18
          18
Lattice="  24.8920   0.0000   0.0000   0.0000  24.8920   0.0000   0.0000   0.0000  24.8920 " ConfE="      -5939.3379" DelE="          0.6611"
Cr     0.08217028   -0.03104529    3.28277382       1
Cr     0.05388641    3.42167506   -0.06318796       2
Ni     0.02158006   -0.12889226   -3.73790698       3
Ni     0.01517016   -3.69158502   -0.13328271       4
Ni    -3.54398965   -0.15044128   -0.14083158       5
Cr     3.63409811   -0.15752226   -0.18998719       6
Co    -1.78109758   -0.14550430    1.60031545       7
Co     1.84282314   -0.10466525    1.53111141       8
Co    -1.89306296    1.71381096   -0.22008692       9
Cr     1.94879088    1.65482215   -0.20618404      10
Cr     0.05144974   -1.84386994    1.62688470      11
Co     0.04228116    1.68007971   -1.85679459      12
Co     0.02159718   -1.86195210   -1.88912462      13
Co    -1.68868652   -1.86052244   -0.12667804      14
Ni     1.78316284   -1.89544728   -0.15214487      15
Cr    -1.55038499   -0.10394738   -1.71733820      16
Cr     1.67365357   -0.11480329   -1.87289267      17
Cr    -0.04310386    1.02278784    0.79481476      18
          18
Lattice="  24.8920   0.0000   0.0000   0.0000  24.8920   0.0000   0.0000   0.0000  24.8920 " ConfE="      -5939.8586" DelE="          0.1404"
Cr     0.08879514   -0.13235649    3.35898662       1
Cr     0.05300388    3.44054122   -0.15452424       2
Ni     0.03235042   -0.13751903   -3.76307038       3
Ni     0.01483625   -3.69744166   -0.15007224       4
Ni    -3.51537901   -0.14437123   -0.13165425       5
Cr     3.59248946   -0.13689963   -0.18018795       6
Co    -1.65820937   -0.14734007    1.57273941       7
Co     1.76774523   -0.10727411    1.51292078       8
Co    -1.66526361    1.62498238   -0.17843700       9
Cr     1.75837020    1.58463239   -0.19224886      10
Cr     0.02006457   -1.85746395    1.58581772      11
Co     0.06642759    1.63709193   -1.91575516      12
Co     0.01809052   -1.84401279   -1.89199591      13
Co    -1.70760427   -1.88428354   -0.15078204      14
Ni     1.79255422   -1.91605786   -0.17278550      15
Cr    -1.67423044   -0.15168721   -1.85881310      16
Cr     1.76364210   -0.14547812   -1.95579891      17
Cr    -0.00792437    1.57139906    1.51567312      18
