          18
Lattice="  24.8920   0.0000   0.0000   0.0000  24.8920   0.0000   0.0000   0.0000  24.8920 " ConfE="      -5940.7357" DelE="          0.0000"
Cr    -0.08313228   -3.49281759   -0.02530022       1
Cr    -3.50427623    0.02508707   -0.03270269       2
Ni     0.03237709    3.63227453    0.02433295       3
Co     3.55260762    0.03480712    0.04269680       4
Cr     0.02054377    0.02183321   -3.52343063       5
Co    -0.04551338    0.02312243    3.56642980       6
Co    -0.04176329   -1.73415030   -1.75727821       7
Ni    -0.01730797   -1.76928045    1.78062929       8
Cr    -1.78310414    0.00977960   -1.71789810       9
Cr    -1.78478022   -0.00743722    1.66872522      10
Cr     1.77036304   -1.76730472   -0.00811599      11
Co    -1.75998854    1.86984149   -0.00896620      12
Cr     1.79600656    1.81526447    0.00894419      13
Co     1.78666091    0.02861421   -1.76964191      14
Co     1.78957653    0.01345571    1.77994262      15
Cr     0.00946147    1.83098634   -1.75574601      16
Cr     0.00294962    1.78213457    1.79122643      17
Ni     0.00000000    0.00000000    0.00000000      18
          18
Lattice="  24.8920   0.0000   0.0000   0.0000  24.8920   0.0000   0.0000   0.0000  24.8920 " ConfE="      -5940.3416" DelE="          0.3941"
Cr    -0.11312047   -3.44630992   -0.00237121       1
Cr    -3.50702264    0.04623954   -0.10379762       2
Ni     0.03030177    3.61425905    0.01507557       3
Co     3.57431400    0.00739120    0.04343359       4
Cr     0.09704482    0.03626673   -3.61499049       5
Co     0.00894315    0.06921027    3.63524426       6
Co     0.02127275   -1.71076106   -1.90113524       7
Ni     0.02863467   -1.77202746    1.95088532       8
Cr    -1.78222762    0.12075149   -2.01893682       9
Cr    -1.72606446    0.11539327    2.00543720      10
Cr     1.59560213   -1.64479552   -0.01253536      11
Co    -1.73726301    1.74379149   -0.02076905      12
Cr     1.80007355    1.71911277   -0.01065398      13
Co     1.75705041    0.02109907   -1.75202095      14
Co     1.75864417    0.00193470    1.75869863      15
Cr     0.01571286    1.74414985   -1.65573846      16
Cr     0.03688957    1.68310177    1.61413212      17
Ni    -1.19535851   -1.05249868    0.02467902      18
          18
Lattice="  24.8920   0.0000   0.0000   0.0000  24.8920   0.0000   0.0000   0.0000  24.8920 " ConfE="      -5940.7458" DelE="         -0.0101"
Cr     0.01418207   -3.56059558   -0.02768186       1
Cr    -3.57533555    0.07756404   -0.03496168       2
Ni     0.03975195    3.65484355    0.02120957       3
Co     3.58715892    0.03303812    0.04800038       4
Cr     0.01384715    0.03203914   -3.54147797       5
Co    -0.04190335    0.03243364    3.58096711       6
Co     0.00060003   -1.66514878   -1.72759261       7
Ni    -0.00171389   -1.75091031    1.77891762       8
Cr    -1.73781899    0.07224809   -1.67785611       9
Cr    -1.73217899    0.06571942    1.64178918      10
Cr     1.71270706   -1.69700615   -0.00431386      11
Co    -1.74526145    1.83742085   -0.00952876      12
Cr     1.79377642    1.76750328    0.01236309      13
Co     1.75574557    0.04620587   -1.72158704      14
Co     1.75395670    0.01474657    1.73862207      15
Cr     0.02685631    1.78107766   -1.66828249      16
Cr     0.03213426    1.73355179    1.68482480      17
Ni    -1.76705488   -1.76519544    0.00803486      18
