          18
Lattice="  24.8920   0.0000   0.0000   0.0000  24.8920   0.0000   0.0000   0.0000  24.8920 " ConfE="      -5943.6167" DelE="          0.0000"
Ni    -0.06297180   -3.54259000   -0.06066829       1
Ni    -3.59804983   -0.02570291   -0.00879652       2
Ni    -0.01493899    3.51829049    0.02315580       3
Co    -0.02544099    0.00442584   -3.56190033       4
Cr     3.52622965   -0.00477507    0.02077420       5
Co    -0.04487907   -0.01661568    3.58163486       6
Ni     1.72716320   -1.79355406   -0.02100874       7
Ni     1.70146336   -0.03549364   -1.76190828       8
Ni    -1.79750802   -1.79134483   -0.01459483       9
Ni    -1.76676065   -0.01193618   -1.76020214      10
Ni    -0.05203709   -1.79803980    1.79110395      11
Ni    -1.79817032   -0.02237841    1.77233832      12
Ni    -0.02133578    1.74749374    1.76934586      13
Cr     1.72425944   -0.04793270    1.80234067      14
Co     1.78434919    1.72977989    0.00255606      15
Cr     0.02129350    1.79428556   -1.78935730      16
Co    -1.80531612    1.81061275   -0.02952681      17
Co     0.00000000    0.00000000    0.00000000      18
          18
Lattice="  24.8920   0.0000   0.0000   0.0000  24.8920   0.0000   0.0000   0.0000  24.8920 " ConfE="      -5939.3653" DelE="          4.2515"
Ni    -0.08787163   -3.61274564   -0.09029325       1
Ni    -3.61779127   -0.02126694    0.00256072       2
Ni    -0.03324324    3.54549521    0.03353084       3
Co    -0.03550961    0.02960443   -3.63574925       4
Cr     3.62554273    0.00091908   -0.01643737       5
Co    -0.06295632    0.06220328    3.67370696       6
Ni     0.60131407   -1.37737925    0.29185228       7
Ni     2.19143605   -1.30972508   -1.26485202       8
Ni    -1.81456074   -1.77914580    0.01792247       9
Ni    -1.82437352    0.01851520   -1.75454689      10
Ni    -0.28287102   -1.84268395    2.24179590      11
Ni    -1.81080220   -0.00827415    1.77234294      12
Ni    -0.00625381    1.68234485    1.69891343      13
Cr     1.71003394   -0.05525826    1.82480254      14
Co     1.77614559    1.71984212   -0.03344697      15
Cr    -0.12202364    2.13352918   -1.91463621      16
Co    -1.79316529    1.81195313   -0.05073641      17
Co     0.54973391    0.23877096   -1.37386017      18
          18
Lattice="  24.8920   0.0000   0.0000   0.0000  24.8920   0.0000   0.0000   0.0000  24.8920 " ConfE="      -5943.8643" DelE="         -0.2476"
Ni    -0.07217442   -3.54430490   -0.05865038       1
Ni    -3.60430032   -0.02851731   -0.01066270       2
Ni    -0.01553627    3.51265955    0.01355369       3
Co    -0.01382907   -0.00095561   -3.53548859       4
Cr     3.53404067   -0.00149388    0.00227379       5
Co    -0.04563341   -0.02006076    3.57503769       6
Ni    -0.02910616   -0.02695687   -0.04244517       7
Ni     1.72213178   -1.78577157   -0.03142966       8
Ni    -1.82195995   -1.80758871   -0.01199681       9
Ni    -1.78730557   -0.01727058   -1.77014819      10
Ni    -0.05815284   -1.79811346    1.79080572      11
Ni    -1.80509998   -0.02710908    1.77083843      12
Ni    -0.02201354    1.73702180    1.75759702      13
Cr     1.74093547   -0.05288455    1.80339613      14
Co     1.78856383    1.72529206   -0.00931993      15
Cr     0.03992835    1.78604022   -1.81357932      16
Co    -1.81005139    1.81512601   -0.03788893      17
Co     1.75547922   -0.00531329   -1.78062196      18
