          18
Lattice="  24.8920   0.0000   0.0000   0.0000  24.8920   0.0000   0.0000   0.0000  24.8920 " ConfE="      -5920.8856" DelE="          0.0000"
Co     0.07409591    0.28311956    3.44574601       1
Cr    -0.04901412   -3.21243904    0.05165405       2
Co    -2.24468565   -1.53721313   -2.44631152       3
Ni     3.51935526    0.23736713    0.00196304       4
Co    -0.05061270    3.97538339   -0.02274332       5
Co    -3.55833375    0.31684121    0.04765811       6
Co    -0.02277798    0.22193918   -3.56584166       7
Co    -1.65872364    0.24972355    1.69327359       8
Cr     1.71181787   -0.01495813    1.82621316       9
Ni     0.87411456    1.97663334    0.88843357      10
Co     1.73084982    0.24899778   -1.72213691      11
Ni     1.82812321   -1.61051202   -0.00354039      12
Cr    -1.69453857    2.08278379    0.14318419      13
Co     0.09657359    2.04968438   -1.66677879      14
Ni    -1.84250971   -1.51293497   -0.04415889      15
Ni    -1.70422345    0.52043679   -1.66653702      16
Cr     0.07121660   -1.50546461   -1.89011247      17
Cr     0.00000000    0.00000000    0.00000000      18
          18
Lattice="  24.8920   0.0000   0.0000   0.0000  24.8920   0.0000   0.0000   0.0000  24.8920 " ConfE="      -5920.7189" DelE="          0.1667"
Co     0.07387331    0.27521697    3.31665078       1
Cr    -0.08708058   -3.20498042    0.14349021       2
Co    -2.24651805   -1.15255602   -2.52300520       3
Ni     3.54781296    0.23993288    0.00605391       4
Co    -0.04351925    3.99306077   -0.00608130       5
Co    -3.57300322    0.31436373    0.06525672       6
Co    -0.07663608    0.14309951   -3.50773144       7
Co    -1.77626524    0.24743870    1.72666405       8
Cr     1.84223140    0.05991596    1.84518465       9
Ni     0.87966038    1.96315380    0.83649855      10
Co     1.67276421    0.23481766   -1.63520880      11
Ni     1.89142331   -1.64402447    0.05072101      12
Cr    -1.67503134    2.17003556    0.25398200      13
Co     0.13883492    2.14287359   -1.67883234      14
Ni    -1.88846173   -1.53671617   -0.02149942      15
Ni    -1.49223093    0.57649616   -1.35249595      16
Cr     0.07024421   -1.56799940   -1.79023332      17
Cr     0.02777271   -0.19377548    0.40871853      18
          18
Lattice="  24.8920   0.0000   0.0000   0.0000  24.8920   0.0000   0.0000   0.0000  24.8920 " ConfE="      -5925.3565" DelE="         -4.4709"
Co     0.04860028    0.29804663    3.48449166       1
Cr    -0.06156320   -3.33168175   -0.04899723       2
Co    -1.79221988    0.26244203   -1.80891603       3
Ni     3.51954706    0.24774276   -0.01172129       4
Co    -0.07159440    3.95152668   -0.03705240       5
Co    -3.53182967    0.27189515   -0.00649170       6
Co    -0.00823862    0.23712260   -3.56256928       7
Co    -1.73171782    0.26804566    1.72456858       8
Cr     1.79563356    0.07955535    1.81745130       9
Ni     0.89229803    2.02855920    0.92633737      10
Co     1.76792512    0.24720260   -1.76237301      11
Ni     1.79058410   -1.59886566    0.00861600      12
Cr    -1.69023632    2.02125962    0.03591536      13
Co    -0.00090004    2.01222270   -1.71616909      14
Ni    -1.79388960   -1.51739002   -0.07080584      15
Ni    -0.00561807    0.11974043   -0.05970939      16
Cr     0.05022711   -1.48690297   -1.90716676      17
Cr    -0.08782691   -1.58237031    1.83071100      18
