          18
Lattice="  24.8920   0.0000   0.0000   0.0000  24.8920   0.0000   0.0000   0.0000  24.8920 " ConfE="      -5940.7629" DelE="          0.0000"
Ni    -0.07942122   -0.01844446    3.51714879       1
Co    -0.00414995   -3.47438366    0.01808891       2
Cr    -3.65012922    0.02764039   -0.04069035       3
Cr    -0.06690432   -0.03653523   -3.60945941       4
Cr     3.44442510    0.04938676   -0.02774454       5
Co    -0.10438206    3.55222810   -0.05624484       6
Ni    -1.81121576   -1.75195846   -0.02748648       7
Ni    -1.78866709   -0.04396826    1.74088101       8
Ni    -0.04335796   -1.78235489   -1.83855112       9
Cr     1.67360307   -1.75763987    0.02301623      10
Co     1.68023981   -0.01544990    1.71335016      11
Ni    -0.06345591    1.78470515   -1.83065830      12
Co    -0.08622182    1.79514667    1.70151884      13
Co    -1.81713046    0.00999259   -1.79951918      14
Cr    -1.84176701    1.75749693   -0.04521699      15
Cr     1.71479290    0.04744761   -1.80918310      16
Co     1.73540380    1.78845109   -0.05534634      17
Cr     0.00000000    0.00000000    0.00000000      18
          18
Lattice="  24.8920   0.0000   0.0000   0.0000  24.8920   0.0000   0.0000   0.0000  24.8920 " ConfE="      -5939.4608" DelE="          1.3021"
Ni    -0.08268363   -0.01221829    3.43301653       1
Co    -0.02117411   -3.44910936   -0.00835370       2
Cr    -3.80590424   -0.01112364   -0.06470343       3
Cr    -0.07515878    0.02925713   -3.49370700       4
Cr     3.58854066    0.09592102   -0.06470872       5
Co    -0.09624955    3.50252760   -0.06478260       6
Ni    -1.95477599   -1.74790192   -0.06745353       7
Ni    -1.94532017   -0.00537071    1.71633705       8
Ni    -0.06147320   -1.70248254   -1.76037003       9
Cr     1.89534194   -1.75012621   -0.23221250      10
Co     1.86704068    0.10200533    1.69857158      11
Ni    -0.10211581    1.08125614   -0.98506801      12
Co    -0.08079199    1.69647003    1.61608947      13
Co    -1.99633854   -0.02845927   -1.80556630      14
Cr    -2.06190547    1.76042773    0.02508728      15
Cr     1.81294005    0.08669437   -1.79422718      16
Co     1.92328848    1.81154187   -0.01585881      17
Cr     0.08283563   -0.94695610    0.88400413      18
          18
Lattice="  24.8920   0.0000   0.0000   0.0000  24.8920   0.0000   0.0000   0.0000  24.8920 " ConfE="      -5940.6326" DelE="          0.1303"
Ni    -0.07300255    0.02414536    3.53401418       1
Co    -0.02244020   -3.51259755   -0.02918091       2
Cr    -3.62558075    0.07371077   -0.06486454       3
Cr    -0.06803411   -0.00285486   -3.56716166       4
Cr     3.45335299    0.08156954   -0.05572720       5
Co    -0.12982809    3.50888846   -0.09830336       6
Ni    -1.84513911   -1.73631236   -0.05476669       7
Ni    -1.82867446    0.01750263    1.73293178       8
Ni    -0.05887018   -1.78659454   -1.83308324       9
Cr     1.74057872   -1.72290846   -0.14522061      10
Co     1.72461874    0.03309713    1.70881336      11
Ni    -0.06483840    0.05608190   -0.08213278      12
Co    -0.08142491    1.78503026    1.73133025      13
Co    -1.80320537    0.06662412   -1.82613079      14
Cr    -1.81059908    1.79801930   -0.11686306      15
Cr     1.66854819    0.15005319   -1.83091061      16
Co     1.71717276    1.77845845   -0.10194625      17
Cr     0.01008215   -1.73156196    1.73065830      18
