          18
Lattice="  24.8920   0.0000   0.0000   0.0000  24.8920   0.0000   0.0000   0.0000  24.8920 " ConfE="      -5938.1954" DelE="          0.0000"
Ni    -0.00464230    0.00135222   -3.49317441       1
Co     0.02810731    3.43230210   -0.01219096       2
Ni     0.01360867   -0.03611566    3.57032265       3
Ni     0.01647560   -3.58453801   -0.01832176       4
Ni     3.51040412   -0.01061353    0.00277217       5
Cr    -3.44456101   -0.12276119   -0.01563576       6
Ni     1.73153639    0.02938374   -1.74477161       7
Co    -1.78374832   -0.02478045   -1.75424958       8
Cr     1.69632427    1.77868225    0.04294444       9
Co    -1.74015667    1.70663895   -0.03570014      10
Co     0.04235573   -1.82509530   -1.80390318      11
Ni    -0.00015768    1.75214908    1.80610347      12
Ni     0.01287698   -1.79245984    1.78877314      13
Ni     1.75019429   -1.79260661    0.00426958      14
Co    -1.79389974   -1.78636627    0.00334354      15
Cr     1.80045412    0.00343604    1.81297881      16
Co    -1.76908644   -0.05578908    1.80036492      17
Ni     0.00000000    0.00000000    0.00000000      18
          18
Lattice="  24.8920   0.0000   0.0000   0.0000  24.8920   0.0000   0.0000   0.0000  24.8920 " ConfE="      -5937.0396" DelE="          1.1558"
Ni     0.00972115    0.03907937   -3.49524847       1
Co     0.00027051    3.44857111    0.00663310       2
Ni    -0.00521634   -0.01007077    3.59921465       3
Ni     0.05506129   -3.49045841   -0.02379092       4
Ni     3.54259848   -0.04320281    0.00296344       5
Cr    -3.49877695   -0.13082321    0.02676764       6
Ni     1.94499266   -0.00479978   -1.92570746       7
Co    -1.87149291   -0.07521009   -1.78825908       8
Cr     1.91009363    1.72336849    0.13652810       9
Co    -1.92213171    1.67213595    0.07137690      10
Co     0.03549663   -1.78536326   -1.87474965      11
Ni     0.01562391    1.68242556    1.70948954      12
Ni    -0.03198211   -1.78745833    1.87776092      13
Ni     1.27582839   -1.13826970    0.04454636      14
Co    -1.76242823   -1.71496948    0.00464724      15
Cr     1.83986716    0.02476931    1.96708687      16
Co    -1.75912514   -0.05243700    1.78559747      17
Ni     0.05477978    1.06755814   -1.00790756      18
          18
Lattice="  24.8920   0.0000   0.0000   0.0000  24.8920   0.0000   0.0000   0.0000  24.8920 " ConfE="      -5938.4016" DelE="         -0.2062"
Ni     0.01732923   -0.03122283   -3.51709332       1
Co     0.01262673    3.49598837    0.02828513       2
Ni     0.01908846   -0.03624916    3.56641076       3
Ni     0.05258568   -3.54717651   -0.02475855       4
Ni     3.48397805   -0.05352326    0.01265014       5
Cr    -3.48455076   -0.14493778    0.01230000       6
Ni     1.78269141   -0.03774987   -1.73667558       7
Co    -1.77193153   -0.05348719   -1.74738296       8
Cr     1.75305182    1.77763247    0.07654308       9
Co    -1.75815063    1.68464722    0.01116755      10
Co     0.08908480   -1.81746558   -1.77635277      11
Ni     0.01056669    1.75336379    1.78618869      12
Ni     0.05330196   -1.79516445    1.76455165      13
Ni     0.05230349   -0.05594159    0.02485915      14
Co    -1.80842226   -1.78657404    0.00698853      15
Cr     1.80989370   -0.02911696    1.81252273      16
Co    -1.75867392   -0.06957905    1.80630180      17
Ni     0.00813058    1.74565134   -1.75746312      18
