          18
Lattice="  24.8920   0.0000   0.0000   0.0000  24.8920   0.0000   0.0000   0.0000  24.8920 " ConfE="      -5937.8201" DelE="          0.0000"
Cr    -3.43830165    0.04672976   -0.05560406       1
Ni    -0.01737930   -0.01507299    3.42200912       2
Ni     3.58874600    0.01501956   -0.08937670       3
Ni     0.03963075   -0.00030727   -3.68354136       4
Co     0.09124438   -3.51539098   -0.08960789       5
Cr    -0.00402939    3.56955175   -0.07361574       6
Ni    -1.70253823   -1.72781302   -0.06306251       7
Co    -1.70849050    1.71234525   -0.07119835       8
Cr     0.01655063   -1.78302996    1.75736963       9
Co     0.02083666    1.73683490    1.67316412      10
Ni    -1.73980359   -0.00676672   -1.90860120      11
Co     1.84611902    0.00378696    1.71546131      12
Ni     1.79263367    0.01092597   -1.85887855      13
Ni     0.06015366   -1.74586591   -1.86159975      14
Ni     0.04265346    1.77840345   -1.87967506      15
Cr     1.78635501   -1.72428701    0.02023630      16
Ni     1.78118579    1.78306405   -0.06767214      17
Cr     0.00000000    0.00000000    0.00000000      18
          18
Lattice="  24.8920   0.0000   0.0000   0.0000  24.8920   0.0000   0.0000   0.0000  24.8920 " ConfE="      -5936.7262" DelE="          1.0938"
Cr    -3.43462168   -0.01051909   -0.12374160       1
Ni    -0.01648432   -0.01104672    3.38876272       2
Ni     3.50565379    0.02569470   -0.10856402       3
Ni     0.08219173    0.00313371   -3.60185138       4
Co     0.08873125   -3.63172127   -0.07792607       5
Cr     0.05087604    3.73565452   -0.10957384       6
Ni    -1.69956562   -1.89180197   -0.12687135       7
Co    -1.66871145    1.85548458   -0.12889719       8
Cr     0.04000093   -1.94608767    1.79839898       9
Co     0.07143490    1.91243416    1.68892943      10
Ni    -1.60213654   -0.00857302   -1.79407687      11
Co     1.75495643    0.00282022    1.66482334      12
Ni     1.08249030   -0.04784918   -1.09310994      13
Ni     0.03310063   -1.94127391   -1.89954900      14
Ni     0.06060691    1.92592430   -1.87721421      15
Cr     1.76115079   -1.87088985    0.09778948      16
Ni     1.78271619    1.93121056   -0.02339037      17
Cr    -0.78415589   -0.01568881    0.87772178      18
          18
Lattice="  24.8920   0.0000   0.0000   0.0000  24.8920   0.0000   0.0000   0.0000  24.8920 " ConfE="      -5938.1028" DelE="         -0.2827"
Cr    -3.49720534    0.01724215   -0.09906950       1
Ni     0.02913756   -0.01051820    3.46001915       2
Ni     3.55880052    0.00832085   -0.11419763       3
Ni     0.05941860    0.00596255   -3.67392546       4
Co     0.11164405   -3.52596304   -0.10056666       5
Cr     0.02701807    3.56415231   -0.10411277       6
Ni    -1.69194908   -1.75851519   -0.09204383       7
Co    -1.71289645    1.77802665   -0.11276173       8
Cr     0.07879395   -1.82446035    1.74348225       9
Co     0.04909297    1.79036994    1.68722239      10
Ni    -1.74576775   -0.00152243   -1.88362971      11
Co     1.83111986    0.00974640    1.73696337      12
Ni     0.07517316   -0.00277094   -0.07877886      13
Ni     0.12727884   -1.71337055   -1.86375490      14
Ni     0.10372767    1.75466248   -1.89320129      15
Cr     1.84159916   -1.74763661   -0.01558276      16
Ni     1.79667028    1.78180110   -0.08332448      17
Cr    -1.71045174    0.03168697    1.68180461      18
