          18
Lattice="  24.8920   0.0000   0.0000   0.0000  24.8920   0.0000   0.0000   0.0000  24.8920 " ConfE="      -5935.3945" DelE="          0.0000"
Ni     0.02474117   -0.05858491   -3.49619078       1
Ni    -3.54451165   -0.03176894    0.04557581       2
Co     0.00747363    3.44241992   -0.03826140       3
Co     3.53726322   -0.07977435    0.01289997       4
Co    -0.02801120   -0.06513726    3.61567763       5
Co    -0.01458816   -3.64801013    0.02214098       6
Ni    -1.74933804   -0.03159446   -1.74198414       7
Cr     1.75897472   -0.10642449   -1.68102844       8
Co     1.79056210    1.71017722   -0.02298906       9
Ni     0.00739751    1.69308644    1.85171227      10
Ni    -1.76950041   -0.03926063    1.81214683      11
Co    -1.75991004    1.77756349   -0.02370439      12
Co     0.04807090   -1.88906982   -1.70367309      13
Co     1.79360975   -1.86069449    0.04651329      14
Co     1.76219507   -0.06125629    1.79338007      15
Cr     0.02585755   -1.83231415    1.76143823      16
Co    -1.77092768   -1.84826393    0.03243268      17
Ni     0.00000000    0.00000000    0.00000000      18
          18
Lattice="  24.8920   0.0000   0.0000   0.0000  24.8920   0.0000   0.0000   0.0000  24.8920 " ConfE="      -5934.8226" DelE="          0.5718"
Ni     0.01618353   -0.06777888   -3.46112391       1
Ni    -3.59811673   -0.04517894    0.05779511       2
Co     0.01376100    3.41106567   -0.03494430       3
Co     3.57665476   -0.08929354    0.02130483       4
Co    -0.03183425   -0.05488909    3.61071047       5
Co    -0.01194475   -3.66269455    0.01578383       6
Ni    -1.89104295   -0.09203194   -1.75931077       7
Cr     1.91474149   -0.19298220   -1.72751683       8
Co     1.97699715    1.77901730    0.04340792       9
Ni     0.00546255    1.65526647    1.75993528      10
Ni    -1.77878015   -0.03586049    1.79250551      11
Co    -1.90336988    1.79756754    0.02225442      12
Co     0.03828388   -1.84135789   -1.67300541      13
Co     1.78362193   -1.84157119    0.04027187      14
Co     1.73438065   -0.06604805    1.74614413      15
Cr     0.04172709   -1.74072096    1.68435109      16
Co    -1.74855849   -1.81726205    0.03679574      17
Ni     0.05438094    0.66084169   -0.68599807      18
          18
Lattice="  24.8920   0.0000   0.0000   0.0000  24.8920   0.0000   0.0000   0.0000  24.8920 " ConfE="      -5935.4728" DelE="         -0.0783"
Ni     0.01656622   -0.08737847   -3.54045080       1
Ni    -3.56260621   -0.03576640    0.04940102       2
Co     0.01246007    3.49589640    0.00955589       3
Co     3.56923224   -0.09166188    0.03244529       4
Co    -0.03085130   -0.06032277    3.62876107       5
Co    -0.00659964   -3.66482609    0.01686205       6
Ni    -1.75179714   -0.07363837   -1.70186759       7
Cr     1.69550494   -0.16264537   -1.57686879       8
Co     1.78749380    1.66259667    0.02278560       9
Ni     0.00602529    1.66154124    1.79605460      10
Ni    -1.73742943   -0.04489021    1.77417076      11
Co    -1.77460236    1.76212444    0.01840662      12
Co     0.05394151   -1.82482252   -1.67245009      13
Co     1.77426086   -1.84371962    0.06336561      14
Co     1.71680153   -0.08514191    1.76951501      15
Cr     0.04161709   -1.77596004    1.72207641      16
Co    -1.73536705   -1.83445229    0.04960737      17
Ni     0.01387871    1.63829477   -1.68871832      18
