          18
Lattice="  24.8920   0.0000   0.0000   0.0000  24.8920   0.0000   0.0000   0.0000  24.8920 " ConfE="      -5945.0017" DelE="          0.0000"
Co     0.03426404   -3.45536021   -0.10304938       1
Cr     0.04859095    0.02556555    3.38655693       2
Ni     0.02771186    3.63856009   -0.12294505       3
Cr     0.03501371    0.06501056   -3.76130498       4
Ni    -3.49444692    0.06985997   -0.10082703       5
Ni     3.54970453    0.06686247   -0.09630398       6
Co    -1.70624246   -1.69493835   -0.10748366       7
Ni     1.76404490   -1.69376935   -0.07165418       8
Co    -1.65781758    0.01984313    1.64378302       9
Cr     1.74464049   -0.00301697    1.68578234      10
Co     0.01991716   -1.68745933   -1.91576352      11
Ni     0.02985423    1.87468461    1.67182501      12
Cr     0.00744929    1.77034697   -1.90569732      13
Co    -1.70904567    0.07931452   -1.89066705      14
Co     1.75124281    0.04658633   -1.87978681      15
Cr    -1.70310919    1.81157721   -0.12477915      16
Co     1.75114842    1.80278010   -0.09410968      17
Cr     0.00000000    0.00000000    0.00000000      18
          18
Lattice="  24.8920   0.0000   0.0000   0.0000  24.8920   0.0000   0.0000   0.0000  24.8920 " ConfE="      -5944.3060" DelE="          0.6958"
Co     0.04443137   -3.42903693   -0.08682822       1
Cr     0.03629524    0.04860455    3.45842063       2
Ni     0.02684911    3.61049373   -0.11079730       3
Cr     0.03844945    0.05079843   -3.71376589       4
Ni    -3.55858672    0.07973291   -0.12323164       5
Ni     3.60515270    0.07419468   -0.11110972       6
Co    -1.82066329   -1.69542593   -0.14458346       7
Ni     1.88574620   -1.71318460   -0.12050830       8
Co    -1.87585705    0.11106211    1.66682208       9
Cr     1.89553210    0.04257756    1.68967527      10
Co     0.00994554   -1.66303141   -1.81391812      11
Ni     0.02431881    1.75209483    1.65327442      12
Cr     0.01195309    1.73788262   -1.88041632      13
Co    -1.69644620    0.08497762   -1.84663499      14
Co     1.72342239    0.04324212   -1.83749949      15
Cr    -1.60589233    1.66708841   -0.12435715      16
Co     1.72345496    1.73628121   -0.08511672      17
Cr    -0.03436707   -0.95141290    0.96847985      18
          18
Lattice="  24.8920   0.0000   0.0000   0.0000  24.8920   0.0000   0.0000   0.0000  24.8920 " ConfE="      -5944.7791" DelE="          0.2227"
Co     0.03690051   -3.49622719   -0.12138614       1
Cr     0.03721079    0.07212981    3.47461665       2
Ni     0.03013754    3.64015288   -0.12167649       3
Cr     0.03486845    0.06524653   -3.74603684       4
Ni    -3.51861781    0.07817688   -0.11429412       5
Ni     3.58149344    0.07671358   -0.11229769       6
Co    -1.70399825   -1.68354577   -0.11247443       7
Ni     1.76120128   -1.64837344   -0.10937393       8
Co    -1.67774130    0.04942033    1.61018222       9
Cr     1.75846922    0.04642510    1.64435597      10
Co     0.01213335   -1.67178287   -1.87224739      11
Ni     0.02259128    1.81175339    1.63778445      12
Cr     0.00959402    1.72283663   -1.86225973      13
Co    -1.68374274    0.09739895   -1.85945839      14
Co     1.73272973    0.06100064   -1.88394173      15
Cr    -1.68565025    1.79440039   -0.15418421      16
Co     1.73670458    1.77633052   -0.10352274      17
Cr    -0.00738997   -1.58020125    1.58093848      18
