          18
Lattice="  24.8920   0.0000   0.0000   0.0000  24.8920   0.0000   0.0000   0.0000  24.8920 " ConfE="      -5925.3794" DelE="          0.0000"
Cr     3.54511389   -0.06734088   -0.12955176       1
Ni    -0.00349288   -0.04181787    3.49921538       2
Cr     0.00138283    3.45108407   -0.08061377       3
Ni    -0.02163391   -3.68833751   -0.01186380       4
Cr    -0.11624988   -0.00589750   -3.47975301       5
Cr    -3.60535242   -0.04419719   -0.03552021       6
Ni     1.77674495   -0.04810081    1.67620445       7
Ni     1.73680861   -0.02742607   -1.77384393       8
Cr    -0.01305137    1.78966950    1.71160928       9
Co     0.00640457    1.78576053   -1.73395459      10
Ni    -1.84448567    1.74485792   -0.00123295      11
Co     1.74878108   -1.89344982   -0.06735165      12
Cr     0.00214776   -1.84876153    1.74118723      13
Co    -0.03163494   -1.87404219   -1.79782432      14
Cr    -1.81197245   -0.10274208    1.74821594      15
Cr    -1.74976892   -1.82925117   -0.03185220      16
Co    -1.80488962   -0.04819708   -1.76387102      17
Ni     0.00000000    0.00000000    0.00000000      18
          18
Lattice="  24.8920   0.0000   0.0000   0.0000  24.8920   0.0000   0.0000   0.0000  24.8920 " ConfE="      -5924.6715" DelE="          0.7079"
Cr     3.47134218   -0.04171852   -0.11537514       1
Ni    -0.01242754   -0.07010028    3.56957661       2
Cr     0.01160612    3.45314773   -0.07887593       3
Ni    -0.00940932   -3.69013760   -0.01531801       4
Cr    -0.16466535   -0.04274941   -3.55432844       5
Cr    -3.59945348   -0.02972003   -0.04092040       6
Ni     1.77648645   -0.11676474    1.82095590       7
Ni     1.74569455   -0.12054418   -1.92853816       8
Cr    -0.07758502    1.75350877    1.89339705       9
Co    -0.07407841    1.76555868   -2.02067191      10
Ni    -1.72219924    1.69894120   -0.01663102      11
Co     1.72402604   -1.83715343   -0.06431745      12
Cr     0.00651123   -1.76894874    1.68060126      13
Co    -0.02550996   -1.86735779   -1.80079309      14
Cr    -1.74270140   -0.09554607    1.70390712      15
Cr    -1.67316518   -1.76923788   -0.06562576      16
Co    -1.75596254   -0.05483541   -1.74924470      17
Ni     0.99176548    1.07020191   -0.05419867      18
          18
Lattice="  24.8920   0.0000   0.0000   0.0000  24.8920   0.0000   0.0000   0.0000  24.8920 " ConfE="      -5925.3940" DelE="         -0.0145"
Cr     3.58448056   -0.10072990   -0.14282530       1
Ni    -0.00361600   -0.05381645    3.52086008       2
Cr    -0.06785997    3.51087102   -0.04741433       3
Ni    -0.01943474   -3.70122777   -0.01322934       4
Cr    -0.13486765   -0.01661579   -3.50032213       5
Cr    -3.64455662   -0.04124427   -0.04460775       6
Ni     1.75482852   -0.07901057    1.66062288       7
Ni     1.70656479   -0.05721958   -1.77347421       8
Cr    -0.03968714    1.65309744    1.68029733       9
Co    -0.03862081    1.73575569   -1.75329654      10
Ni    -1.81071652    1.71238384   -0.00464560      11
Co     1.73084057   -1.87009671   -0.06736419      12
Cr    -0.00438852   -1.75840866    1.65401736      13
Co    -0.03733874   -1.86127669   -1.77124579      14
Cr    -1.79221891   -0.10335168    1.70720588      15
Cr    -1.71186081   -1.79172004   -0.06411977      16
Co    -1.78777779   -0.06601141   -1.73047890      17
Ni     1.74743791    1.72932732   -0.04967329      18
