          18
Lattice="  24.8920   0.0000   0.0000   0.0000  24.8920   0.0000   0.0000   0.0000  24.8920 " ConfE="      -5930.3760" DelE="          0.0000"
Ni     0.03731101    0.01215238   -3.47595860       1
Ni     0.05590688    0.04380763    3.59372806       2
Ni     0.02291706    3.59826330    0.01729493       3
Co    -0.00692898   -3.45574445   -0.00574494       4
Co     3.57315971    0.04922505    0.02387371       5
Co    -3.50365920    0.07591275    0.04316169       6
Ni     1.78713244    0.00854113   -1.72680897       7
Co    -1.69584616    0.04425147   -1.70991583       8
Co     1.75159977   -1.72255962    0.02351508       9
Co    -1.67219474   -1.69781432    0.03179573      10
Ni     1.80074010    0.03514934    1.82154594      11
Cr     0.01222525    1.80862517   -1.73947661      12
Co     1.79155204    1.81288483    0.02564093      13
Cr    -1.78193512    1.78721113    0.03694746      14
Co    -1.74208766    0.06339729    1.81692923      15
Cr     0.01234560   -1.71185091    1.76044009      16
Co     0.02361818    1.81839436    1.78386457      17
Cr     0.00000000    0.00000000    0.00000000      18
          18
Lattice="  24.8920   0.0000   0.0000   0.0000  24.8920   0.0000   0.0000   0.0000  24.8920 " ConfE="      -5929.6057" DelE="          0.7703"
Ni     0.03834097    0.01740486   -3.43702935       1
Ni     0.06828601    0.04197878    3.59402168       2
Ni     0.02568446    3.60201797    0.02279921       3
Co     0.00515544   -3.42486143    0.01012296       4
Co     3.64350753    0.06290586    0.02302652       5
Co    -3.58165072    0.08588238    0.06392584       6
Ni     1.89775509    0.04100593   -1.74075254       7
Co    -1.83894145    0.07646788   -1.75219443       8
Co     1.86755094   -1.71504030    0.03659885       9
Co    -1.86946272   -1.74361846    0.07749673      10
Ni     1.79623440    0.02600506    1.78960443      11
Cr     0.03569127    1.73636468   -1.66131997      12
Co     1.75985561    1.77141683    0.01332335      13
Cr    -1.65258174    1.63102118    0.04761563      14
Co    -1.71069818    0.03014571    1.76036448      15
Cr     0.02590053   -1.65219762    1.69710604      16
Co     0.02132652    1.77816176    1.74652061      17
Cr    -0.05884439   -0.92421805   -0.86401663      18
          18
Lattice="  24.8920   0.0000   0.0000   0.0000  24.8920   0.0000   0.0000   0.0000  24.8920 " ConfE="      -5930.0990" DelE="          0.2770"
Ni     0.03434365    0.03468473   -3.50192468       1
Ni     0.05993430    0.03589246    3.58058600       2
Ni     0.02536833    3.60344971    0.01692356       3
Co     0.00841976   -3.52681510    0.04084571       4
Co     3.61767874    0.05381146    0.02927978       5
Co    -3.55541224    0.08097350    0.06206001       6
Ni     1.82569863    0.02080536   -1.69719288       7
Co    -1.72171822    0.05020603   -1.68806362       8
Co     1.77593849   -1.71669789    0.05116687       9
Co    -1.69114815   -1.68969675    0.05527434      10
Ni     1.79702052    0.04035255    1.80422668      11
Cr    -0.00111400    1.57774647   -1.54437922      12
Co     1.79064192    1.80916629    0.02446790      13
Cr    -1.75949519    1.77756120    0.09840001      14
Co    -1.72017190    0.06703927    1.77367552      15
Cr     0.01874476   -1.62320338    1.60298806      16
Co     0.02576011    1.79362887    1.75068056      17
Cr     0.01044332   -1.61435160   -1.53774317      18
