          18
Lattice="  24.8920   0.0000   0.0000   0.0000  24.8920   0.0000   0.0000   0.0000  24.8920 " ConfE="      -5940.0116" DelE="          0.0000"
Ni     0.01477239    0.03386819    3.50449670       1
Ni     0.00486509    3.49006228    0.04046557       2
Cr     0.01829276   -0.02452268   -3.53814299       3
Co    -0.02057909   -3.54543622    0.01427118       4
Ni    -3.54231878   -0.01390571    0.00460358       5
Co     3.54635900    0.01283162   -0.06063806       6
Ni    -1.76255221    0.02379089    1.74354851       7
Cr     1.79509722    0.04050927    1.70026144       8
Co    -1.72834093    1.77333921   -0.03497529       9
Cr     1.72631480    1.77677065   -0.00686562      10
Ni    -0.01957115   -1.78385257    1.74610489      11
Co     0.03192350    1.77861729   -1.83198695      12
Co     0.00379816   -1.78759273   -1.78308000      13
Cr    -1.79872389   -1.85692349   -0.02245770      14
Cr     1.80341444   -1.80586760    0.00872054      15
Ni    -1.76866345   -0.02402815   -1.77222809      16
Co     1.78873247   -0.00640507   -1.78865927      17
Ni     0.00000000    0.00000000    0.00000000      18
          18
Lattice="  24.8920   0.0000   0.0000   0.0000  24.8920   0.0000   0.0000   0.0000  24.8920 " ConfE="      -5939.3515" DelE="          0.6601"
Ni     0.01828955    0.03934753    3.48265981       1
Ni     0.02428934    3.41590007    0.05450070       2
Cr     0.00848560   -0.00961494   -3.55950972       3
Co    -0.02401417   -3.54953288    0.03263806       4
Ni    -3.58709091   -0.01919642   -0.00549342       5
Co     3.58611024   -0.00082184   -0.06526166       6
Ni    -1.88901977   -0.01780620    1.77375634       7
Cr     1.99846551   -0.08553273    1.77471406       8
Co    -1.84078640    1.78851477   -0.06958082       9
Cr     1.94026613    1.81073406   -0.10635911      10
Ni    -0.01814719   -1.70836354    1.72147731      11
Co     0.03433635    1.75155119   -1.79462031      12
Co     0.00058945   -1.74045704   -1.72419104      13
Cr    -1.73871161   -1.79014557   -0.03011936      14
Cr     1.70302277   -1.69157899   -0.03850311      15
Ni    -1.76044527   -0.00870625   -1.75375407      16
Co     1.76869131    0.00856775   -1.75238433      17
Ni     0.11024522    0.70590704    0.74420547      18
          18
Lattice="  24.8920   0.0000   0.0000   0.0000  24.8920   0.0000   0.0000   0.0000  24.8920 " ConfE="      -5940.1293" DelE="         -0.1177"
Ni     0.00813115   -0.00348134    3.54630361       1
Ni    -0.00059690    3.54362727   -0.00094597       2
Cr     0.00963661   -0.02930329   -3.56083690       3
Co    -0.02129161   -3.57400134    0.02054379       4
Ni    -3.55507086   -0.01910419   -0.00502485       5
Co     3.57961032    0.00824918   -0.07038741       6
Ni    -1.76605741   -0.01549715    1.69692339       7
Cr     1.79327618   -0.01058361    1.66004885       8
Co    -1.71408956    1.75108234   -0.05381763       9
Cr     1.67968645    1.68893160   -0.08324191      10
Ni    -0.01821466   -1.73372470    1.69543042      11
Co     0.03462058    1.75957011   -1.78641031      12
Co     0.00567697   -1.76926695   -1.73349118      13
Cr    -1.75495191   -1.84921790   -0.05629694      14
Cr     1.72940386   -1.73217523   -0.04189515      15
Ni    -1.72514919   -0.02400160   -1.73735609      16
Co     1.75996747   -0.01612590   -1.75356672      17
Ni    -0.00471897    1.73289609    1.75073371      18
