          18
Lattice="  24.8920   0.0000   0.0000   0.0000  24.8920   0.0000   0.0000   0.0000  24.8920 " ConfE="      -5930.2641" DelE="          0.0000"
Ni    -0.02561652   -0.04783871    3.53330038       1
Co    -0.03956562    3.48123873   -0.01782984       2
Cr     3.46999763   -0.01637997   -0.00638854       3
Ni    -3.63100864   -0.02390245    0.00491033       4
Co    -0.06994606   -3.56239162   -0.06122775       5
Co    -0.04018694   -0.05555986   -3.58677641       6
Ni     0.00787598    1.73015069    1.73745721       7
Cr     1.75207322   -0.03808691    1.79861204       8
Ni     1.72447099   -1.82956962   -0.01608428       9
Cr     1.69772336   -0.00523384   -1.79536593      10
Cr    -0.02319292    1.75327457   -1.73998364      11
Ni    -1.82326663   -0.02801983   -1.79102414      12
Ni    -1.82294849   -1.78622596   -0.01530207      13
Co    -1.89172536    1.76002278   -0.00919565      14
Co    -1.81374807   -0.02636920    1.78351540      15
Cr    -0.07949621   -1.82579247    1.77958197      16
Cr    -0.05484418   -1.79478472   -1.82336591      17
Ni     0.00000000    0.00000000    0.00000000      18
          18
Lattice="  24.8920   0.0000   0.0000   0.0000  24.8920   0.0000   0.0000   0.0000  24.8920 " ConfE="      -5925.7083" DelE="          4.5558"
Ni    -0.03619903   -0.04726824    3.44793173       1
Co    -0.02063907    3.60075975   -0.03043132       2
Cr     3.49034983   -0.02671043    0.01384250       3
Ni    -3.09308830   -0.02197803    0.97899016       4
Co    -0.07140967   -3.65202148   -0.04922543       5
Co    -0.01051313   -0.05537970   -3.58029964       6
Ni     0.09281513    1.92779094    1.72638251       7
Cr     1.70470607    0.01914796    1.63875445       8
Ni     1.66505475   -1.84694098    0.02097551       9
Cr     1.66938191    0.04148080   -1.58853627      10
Cr     0.09948293    2.01226529   -1.70949778      11
Ni    -2.98588090    0.02801033   -1.31326714      12
Ni    -1.88338234   -1.92855763   -0.07229184      13
Co    -1.88611744    1.88008064   -0.02776613      14
Co    -0.68979524   -0.11586586    1.03091311      15
Cr    -0.10988106   -2.05345122    1.82823265      16
Cr     0.02451777   -2.07920701   -1.84341104      17
Ni    -0.75225305   -0.02705068   -1.30876217      18
          18
Lattice="  24.8920   0.0000   0.0000   0.0000  24.8920   0.0000   0.0000   0.0000  24.8920 " ConfE="      -5930.3594" DelE="         -0.0952"
Ni    -0.02964456   -0.04717438    3.52104044       1
Co    -0.04396488    3.49028473   -0.01522337       2
Cr     3.46181552   -0.01786989    0.00250659       3
Ni    -1.81179056   -0.02667763    1.74449088       4
Co    -0.06631777   -3.57632147   -0.06028556       5
Co    -0.03883517   -0.05820392   -3.59401772       6
Ni     0.00339884    1.72863669    1.72822503       7
Cr     1.74158724   -0.03489449    1.76950205       8
Ni     1.73014110   -1.84586371   -0.01056379       9
Cr     1.68001602   -0.00906269   -1.75997150      10
Cr    -0.02447163    1.73223967   -1.72161767      11
Ni    -3.63332180   -0.02094267   -0.00178572      12
Ni    -1.81852685   -1.78987375   -0.02458114      13
Co    -1.88607406    1.76152662   -0.01894596      14
Co     0.03796757    0.00649968   -0.02808733      15
Cr    -0.06042346   -1.82916785    1.76072055      16
Cr    -0.04858433   -1.78739481   -1.81060047      17
Ni    -1.82384369   -0.03183140   -1.79353551      18
