          18
Lattice="  24.8920   0.0000   0.0000   0.0000  24.8920   0.0000   0.0000   0.0000  24.8920 " ConfE="      -5948.2050" DelE="          0.0000"
Ni    -0.03995480   -3.52761786    0.02812853       1
Ni     0.00085307   -0.01019737    3.57558435       2
Ni    -0.03811650    0.01220236   -3.54999990       3
Co    -3.52850194   -0.04437629    0.05765190       4
Cr     0.00580769    3.53480325   -0.00887496       5
Co     3.53037358    0.00232416    0.00168496       6
Ni    -0.06259242   -1.77278895    1.74942663       7
Ni    -1.78020872    1.75057331    0.02317952       8
Co     0.00962956   -1.77414864   -1.76592924       9
Ni    -0.00706894    1.75931718    1.80354834      10
Co    -1.80687292   -0.01280006    1.79935125      11
Co    -1.78688001   -0.01184679   -1.77481141      12
Co     1.78995068   -1.79248305   -0.02504410      13
Cr     1.73564124    1.70922200   -0.10566976      14
Cr     1.73457030   -0.01633855    1.71623479      15
Co    -0.00665129    1.77346385   -1.76534732      16
Co     1.78343799   -0.04407505   -1.77128760      17
Co     0.00000000    0.00000000    0.00000000      18
          18
Lattice="  24.8920   0.0000   0.0000   0.0000  24.8920   0.0000   0.0000   0.0000  24.8920 " ConfE="      -5947.3959" DelE="          0.8091"
Ni    -0.04074342   -3.50054179    0.04589276       1
Ni     0.02088129    0.00003818    3.64037449       2
Ni    -0.03425431    0.01324579   -3.59518619       3
Co    -3.50334346   -0.03965407    0.05154924       4
Cr     0.00216687    3.54092082    0.00063373       5
Co     3.52840480   -0.01043120   -0.00576892       6
Ni    -0.00566624   -1.82900814    1.93651682       7
Ni    -1.72081802    1.66707321    0.02172184       8
Co     0.05027594   -1.79051947   -1.87746779       9
Ni     0.00424186    1.71672890    1.79855226      10
Co    -1.82198627    0.07586084    1.96916082      11
Co    -1.82874776    0.04988004   -1.92123811      12
Co     1.66437368   -1.70506401    0.01692415      13
Cr     1.62401657    1.59276718   -0.12439597      14
Cr     1.68321471   -0.04599249    1.68447065      15
Co    -0.01386371    1.73719548   -1.76489123      16
Co     1.73974497   -0.04606426   -1.75569531      17
Co    -1.02794222   -0.96162409    0.01805213      18
          18
Lattice="  24.8920   0.0000   0.0000   0.0000  24.8920   0.0000   0.0000   0.0000  24.8920 " ConfE="      -5947.9377" DelE="          0.2673"
Ni    -0.01347986   -3.55582405    0.03369995       1
Ni     0.00956535   -0.00582060    3.60001633       2
Ni    -0.04195439    0.01311918   -3.56333376       3
Co    -3.57673558    0.00296889    0.04355802       4
Cr     0.00472568    3.56008841   -0.00561702       5
Co     3.55086935    0.00442448   -0.00202816       6
Ni    -0.02568090   -1.73647779    1.75674748       7
Ni    -1.73386401    1.69193158    0.01354972       8
Co     0.00759657   -1.75024616   -1.74822675       9
Ni     0.00460041    1.72297655    1.77429666      10
Co    -1.80521037    0.02031463    1.82921308      11
Co    -1.78500129   -0.00337394   -1.78674063      12
Co     1.74791176   -1.74514186   -0.00809010      13
Cr     1.69152780    1.65918593   -0.11858872      14
Cr     1.73114019   -0.00492700    1.69151633      15
Co    -0.00045436    1.74635647   -1.74065816      16
Co     1.74203876   -0.03380220   -1.72771041      17
Co    -1.79171847   -1.73574618    0.03723132      18
