          18
Lattice="  24.8920   0.0000   0.0000   0.0000  24.8920   0.0000   0.0000   0.0000  24.8920 " ConfE="      -5943.6517" DelE="          0.0000"
Ni     0.02600692    0.02018254   -3.49079025       1
Ni     0.02047268    3.52833808    0.02960333       2
Ni    -0.00858847   -0.02579199    3.58272586       3
Co     0.03440989   -3.58411646    0.00964376       4
Ni    -3.50741872   -0.03776176    0.02711154       5
Ni     3.54104331   -0.02884653    0.04403070       6
Co    -1.72462274    0.05376662   -1.78504883       7
Co     1.84320532   -0.07972934   -1.77735018       8
Co    -1.78285544    1.75268404   -0.03785359       9
Ni     1.73310339    1.75716488    0.04221871      10
Co     0.04035493   -1.85460935   -1.78250702      11
Ni    -0.00720805    1.74200578    1.83082549      12
Ni     0.01615107   -1.80379339    1.80535651      13
Ni    -1.73263620   -1.79771133    0.02698811      14
Ni     1.78600398   -1.81334804    0.05228935      15
Cr    -1.77851217   -0.01426059    1.83864542      16
Ni     1.77199856   -0.02642303    1.84204922      17
Ni     0.00000000    0.00000000    0.00000000      18
          18
Lattice="  24.8920   0.0000   0.0000   0.0000  24.8920   0.0000   0.0000   0.0000  24.8920 " ConfE="      -5942.9752" DelE="          0.6765"
Ni     0.02563611    0.02193921   -3.47619102       1
Ni     0.02527999    3.49935297    0.00695570       2
Ni    -0.00879122   -0.00991560    3.58045399       3
Co     0.03719996   -3.56956786    0.00311319       4
Ni    -3.57210950   -0.05439865    0.04563795       5
Ni     3.58369860   -0.02223480    0.05389276       6
Co    -1.91046090   -0.02316849   -1.83300850       7
Co     2.01579170   -0.13907177   -1.84321754       8
Co    -1.91003327    1.77748728   -0.00552238       9
Ni     1.87822030    1.80598415    0.11891332      10
Co     0.04697394   -1.78228238   -1.76535783      11
Ni    -0.01930771    1.69916804    1.73018324      12
Ni     0.01360071   -1.75279365    1.77282575      13
Ni    -1.71554173   -1.73197589    0.01568991      14
Ni     1.78154662   -1.76799409    0.03853529      15
Cr    -1.76751691   -0.00260922    1.80012528      16
Ni     1.77201894   -0.01673481    1.81849600      17
Ni     0.04861547    0.97265263   -1.06273919      18
          18
Lattice="  24.8920   0.0000   0.0000   0.0000  24.8920   0.0000   0.0000   0.0000  24.8920 " ConfE="      -5943.7070" DelE="         -0.0553"
Ni     0.02277422   -0.01175460   -3.53608569       1
Ni     0.02769846    3.54719742    0.04467681       2
Ni    -0.00990381   -0.01844445    3.59972136       3
Co     0.03271668   -3.58950374    0.01679555       4
Ni    -3.53281368   -0.04820972    0.04003702       5
Ni     3.55595808   -0.02846296    0.04129527       6
Co    -1.71226252   -0.01479067   -1.73293484       7
Co     1.83418211   -0.08430413   -1.77185941       8
Co    -1.78895072    1.71267383   -0.01189254       9
Ni     1.72906405    1.71946237    0.05619141      10
Co     0.05394120   -1.82911985   -1.77445612      11
Ni    -0.03253378    1.69919484    1.77710284      12
Ni     0.00827460   -1.75990141    1.78685786      13
Ni    -1.70271471   -1.75692827    0.03437269      14
Ni     1.76344664   -1.77819569    0.05038225      15
Cr    -1.78717275   -0.02543750    1.84757135      16
Ni     1.75566960   -0.02597667    1.82827609      17
Ni     0.01540023    1.73066203   -1.73473437      18
