          18
Lattice="  24.8920   0.0000   0.0000   0.0000  24.8920   0.0000   0.0000   0.0000  24.8920 " ConfE="      -5925.7716" DelE="          0.0000"
Co    -0.05950229   -0.03006857    3.54459211       1
Co    -0.03102742   -3.60540142    0.01165208       2
Cr     0.00578752   -0.10169042   -3.55536731       3
Cr    -0.00002421    3.42971251    0.10165803       4
Co    -3.55601754   -0.01914150   -0.01381208       5
Co     3.58382954   -0.06706638    0.00427821       6
Ni    -1.72937103   -1.79750005    0.04300207       7
Ni     1.70881359   -1.81950384    0.07640644       8
Ni     1.75239634   -0.08241524    1.81115047       9
Co    -1.74249009   -0.07021811    1.81335479      10
Ni    -1.75153563   -0.05162928   -1.75951406      11
Ni     1.78920997   -0.07700521   -1.75286085      12
Co     0.00727103    1.72722551    1.79276136      13
Co     0.00953754   -1.82488050   -1.79765625      14
Co    -1.75554025    1.71848386    0.03216896      15
Cr     0.03316175    1.73870747   -1.69687753      16
Co     1.79514204    1.71444681    0.00668238      17
Co     0.00000000    0.00000000    0.00000000      18
          18
Lattice="  24.8920   0.0000   0.0000   0.0000  24.8920   0.0000   0.0000   0.0000  24.8920 " ConfE="      -5924.9127" DelE="          0.8589"
Co    -0.04879666   -0.04653764    3.49267523       1
Co    -0.01388105   -3.50092026    0.06432708       2
Cr    -0.00219210   -0.11943365   -3.55684640       3
Cr     0.00511079    3.47091355    0.12165794       4
Co    -3.62599952   -0.00528969   -0.03510521       5
Co     3.66805533   -0.03350524   -0.01282955       6
Ni    -1.92905477   -1.84003695   -0.00829433       7
Ni     1.93069601   -1.84581093    0.02570167       8
Ni     1.94443721   -0.03361715    1.81939542       9
Co    -1.93083038    0.01855067    1.82731723      10
Ni    -1.72519685   -0.07139803   -1.69494771      11
Ni     1.77139377   -0.08516405   -1.70888205      12
Co     0.01561701    1.61057373    1.70889014      13
Co     0.01284365   -1.79627031   -1.67771602      14
Co    -1.73716539    1.68723205    0.03022307      15
Cr     0.03376044    1.65280471   -1.55297974      16
Co     1.78981292    1.68283599    0.00658672      17
Co    -0.02941591   -0.96608076    0.98136254      18
          18
Lattice="  24.8920   0.0000   0.0000   0.0000  24.8920   0.0000   0.0000   0.0000  24.8920 " ConfE="      -5925.8864" DelE="         -0.1148"
Co    -0.04804654   -0.00276097    3.58042520       1
Co    -0.02688191   -3.61790904   -0.00628928       2
Cr    -0.01106464   -0.10523186   -3.65589227       3
Cr    -0.01077578    3.51256728    0.15497527       4
Co    -3.55947512   -0.01019238   -0.02552844       5
Co     3.58636080   -0.05485551   -0.01125017       6
Ni    -1.73136251   -1.77749286    0.01754004       7
Ni     1.70924098   -1.77732278    0.03383279       8
Ni     1.75650394   -0.06864199    1.79274218       9
Co    -1.75861260   -0.03496276    1.80032525      10
Ni    -1.67637276   -0.03637401   -1.73732418      11
Ni     1.70340888   -0.04031323   -1.75216800      12
Co     0.00505270    1.67810788    1.75056145      13
Co     0.01133188   -1.83220884   -1.79148091      14
Co    -1.69314968    1.69200249    0.02095198      15
Cr     0.02061330    1.83026940   -1.64041410      16
Co     1.73575009    1.69654059   -0.00567437      17
Co    -0.04295195   -1.81900506    1.81210821      18
