          18
Lattice="  24.8920   0.0000   0.0000   0.0000  24.8920   0.0000   0.0000   0.0000  24.8920 " ConfE="      -5937.5635" DelE="          0.0000"
Ni    -0.01784741   -0.03201409   -3.46810709       1
Ni    -3.55147299   -0.08832485    0.01594840       2
Ni    -0.01759791   -0.03348057    3.61507657       3
Ni    -0.00628437   -3.59775810    0.05362300       4
Co    -0.03336458    3.44024113   -0.02384998       5
Co     3.49076081   -0.05690195    0.03228296       6
Ni    -1.78297425    1.70999680    0.00536628       7
Cr     1.72466016   -0.02620773   -1.66357081       8
Cr     1.79922168    1.68993018    0.06189383       9
Ni     1.74873344   -0.04468949    1.83045275      10
Co    -1.78219982   -0.08822239   -1.73562003      11
Ni    -0.01401572   -1.83916932   -1.71731700      12
Ni    -0.03042730    1.73240423    1.86862034      13
Ni    -0.00949028   -1.82401333    1.81346993      14
Cr     1.78742695   -1.79325096    0.08501871      15
Co    -1.79996940   -0.07629225    1.85801350      16
Co    -1.78859271   -1.85221960    0.06118557      17
Ni     0.00000000    0.00000000    0.00000000      18
          18
Lattice="  24.8920   0.0000   0.0000   0.0000  24.8920   0.0000   0.0000   0.0000  24.8920 " ConfE="      -5936.9334" DelE="          0.6300"
Ni    -0.01076613   -0.02118711   -3.41957557       1
Ni    -3.63423641   -0.09332786    0.05616081       2
Ni    -0.02167445   -0.02274677    3.59355884       3
Ni    -0.01780025   -3.60200819    0.04942366       4
Co    -0.03909420    3.44872741   -0.01170150       5
Co     3.54651341   -0.06340763    0.03766225       6
Ni    -1.91822903    1.69907938    0.07994379       7
Cr     1.91267415   -0.12254951   -1.63926450       8
Cr     1.95380638    1.76490685    0.15815257       9
Ni     1.72762259   -0.04307519    1.76498545      10
Co    -1.92836025   -0.16519881   -1.69669886      11
Ni    -0.00389803   -1.73437812   -1.62957814      12
Ni    -0.03804744    1.70603973    1.77985217      13
Ni    -0.01505088   -1.80638715    1.78995553      14
Cr     1.77036531   -1.78108196    0.08798007      15
Co    -1.80963402   -0.07911271    1.84248407      16
Co    -1.79154780   -1.82790872    0.08901188      17
Ni     0.04802126    1.00829843   -0.99699491      18
          18
Lattice="  24.8920   0.0000   0.0000   0.0000  24.8920   0.0000   0.0000   0.0000  24.8920 " ConfE="      -5937.4134" DelE="          0.1500"
Ni    -0.02441466   -0.06030876   -3.50127521       1
Ni    -3.57531709   -0.09265988    0.02988191       2
Ni    -0.01181973   -0.03209963    3.61621869       3
Ni    -0.00898524   -3.61566427    0.05212910       4
Co    -0.02469016    3.50113164    0.03080901       5
Co     3.52249329   -0.06408057    0.03585275       6
Ni    -1.78146105    1.66718401    0.05517466       7
Cr     1.71911203   -0.07731662   -1.60127855       8
Cr     1.78607081    1.65069218    0.08987590       9
Ni     1.72562412   -0.05780188    1.79115195      10
Co    -1.78888902   -0.12935724   -1.68609255      11
Ni    -0.00413704   -1.79872558   -1.66768497      12
Ni    -0.02734158    1.71368354    1.83219163      13
Ni    -0.01021998   -1.81544792    1.79162560      14
Cr     1.76924916   -1.78848381    0.09241624      15
Co    -1.79529594   -0.08956958    1.85716885      16
Co    -1.78118103   -1.84469866    0.07998207      17
Ni    -0.01612580    1.64551102   -1.66373190      18
