          18
Lattice="  24.8920   0.0000   0.0000   0.0000  24.8920   0.0000   0.0000   0.0000  24.8920 " ConfE="      -5930.2541" DelE="          0.0000"
Cr     0.00158173   -0.01325042   -3.42468894       1
Co     3.54050993   -0.01803003    0.03707545       2
Ni     0.00477981    0.03045692    3.60308513       3
Cr    -3.57629012    0.00550136    0.04729985       4
Cr     0.05809959   -3.52753578   -0.03271364       5
Cr    -0.00733600    3.54722477   -0.03234170       6
Cr     0.04724262   -1.78345917   -1.77687602       7
Cr     0.07661692    1.76817830   -1.70122188       8
Cr     1.80617065   -1.64861179   -0.01628047       9
Cr     1.85159758    1.63256989   -0.05624284      10
Ni    -1.80507224    0.01730815   -1.71506342      11
Co     1.77594745    0.00794546    1.84444815      12
Ni    -1.78300606    0.01373257    1.78464924      13
Cr    -1.80607682   -1.83119595    0.02734795      14
Cr    -1.83399723    1.85235680   -0.00092409      15
Ni    -0.01591646   -1.77550690    1.80055404      16
Ni    -0.01484960    1.78670842    1.79478486      17
Ni     0.00000000    0.00000000    0.00000000      18
          18
Lattice="  24.8920   0.0000   0.0000   0.0000  24.8920   0.0000   0.0000   0.0000  24.8920 " ConfE="      -5929.1845" DelE="          1.0696"
Cr     0.14765190   -0.01051239   -3.38181068       1
Co     3.51361231   -0.00896304    0.00190006       2
Ni     0.03518723    0.03151667    3.58719838       3
Cr    -3.54903891    0.02026689    0.02166864       4
Cr     0.03345686   -3.59705022   -0.01171992       5
Cr    -0.01209975    3.63167448    0.00793843       6
Cr     0.03412847   -1.96535392   -1.89172840       7
Cr     0.04189142    1.99058164   -1.75162049       8
Cr     1.81353823   -1.87659130    0.05375472       9
Cr     1.84122274    1.89592391   -0.00831932      10
Ni    -1.68106655    0.02282755   -1.71032511      11
Co     1.76500914    0.02291495    1.74469194      12
Ni    -1.71032634    0.01172401    1.72216920      13
Cr    -1.66239229   -1.78165684   -0.02345250      14
Cr    -1.71688071    1.81231066   -0.00865854      15
Ni     0.00971774   -1.78879051    1.79098662      16
Ni     0.00908364    1.80806669    1.78650005      17
Ni     0.70032739   -0.01544107   -0.76722337      18
          18
Lattice="  24.8920   0.0000   0.0000   0.0000  24.8920   0.0000   0.0000   0.0000  24.8920 " ConfE="      -5930.4609" DelE="         -0.2068"
Cr    -0.04438541   -0.00872498   -3.47543634       1
Co     3.59332916   -0.01542231    0.08897617       2
Ni     0.01290768    0.02978887    3.60138640       3
Cr    -3.56480161    0.00828377    0.04207247       4
Cr     0.04519865   -3.54360657   -0.02164841       5
Cr    -0.01261607    3.57029900   -0.01471102       6
Cr     0.03989150   -1.81652390   -1.79639488       7
Cr     0.05404468    1.81861360   -1.70779694       8
Cr     1.81710353   -1.72185441    0.02486801       9
Cr     1.82768711    1.74173663    0.01788450      10
Ni    -1.77049852    0.01855302   -1.71749472      11
Co     1.78317653    0.01248973    1.82302097      12
Ni    -1.77725038    0.01371109    1.78610333      13
Cr    -1.80132683   -1.82897819    0.02707689      14
Cr    -1.82474204    1.85464366    0.00251444      15
Ni    -0.01087865   -1.77862407    1.80136110      16
Ni    -0.02017908    1.79525207    1.81070525      17
Ni     0.00178436    0.00291702    0.01719310      18
