          18
Lattice="  24.8920   0.0000   0.0000   0.0000  24.8920   0.0000   0.0000   0.0000  24.8920 " ConfE="      -5943.2130" DelE="          0.0000"
Ni    -3.53058937   -0.02158134    0.03009739       1
Ni     0.01283566   -0.00719940    3.56360106       2
Ni     0.02136921    0.01253239   -3.53759796       3
Co    -0.01789775   -3.51137156    0.01688473       4
Cr     0.02615191    3.61723435    0.04910746       5
Cr     3.55091774    0.00436370    0.00682575       6
Ni    -1.77900788   -0.01972177    1.76159806       7
Ni    -0.02706497   -1.77881115    1.74521244       8
Cr    -1.69968936   -0.11849584   -1.62108014       9
Ni    -0.00453319    1.77483671    1.80362799      10
Cr     0.02211582   -1.77486266   -1.67762072      11
Co    -1.76251429    1.82498964   -0.01686767      12
Cr     1.78105315    1.78509255    0.00255660      13
Co     1.83248701   -1.75799615    0.03104394      14
Cr     1.76587031    0.03620099    1.74851461      15
Co     0.00846358    1.80000701   -1.74419804      16
Co     1.79356475    0.03785267   -1.75568565      17
Co     0.00000000    0.00000000    0.00000000      18
          18
Lattice="  24.8920   0.0000   0.0000   0.0000  24.8920   0.0000   0.0000   0.0000  24.8920 " ConfE="      -5942.2944" DelE="          0.9186"
Ni    -3.49654727   -0.04361534    0.03798570       1
Ni     0.03555258    0.00682299    3.63085084       2
Ni     0.04144480    0.03237111   -3.58551580       3
Co     0.00098412   -3.47156803    0.05777272       4
Cr     0.01597715    3.61179137    0.04693797       5
Cr     3.57165800    0.00316136    0.00737226       6
Ni    -1.78798982   -0.00044454    1.89255302       7
Ni     0.07178701   -1.80790931    1.95162117       8
Cr    -1.77169679    0.00007369   -1.80868758       9
Ni    -0.00121247    1.72924111    1.80086388      10
Cr     0.14061964   -1.80340253   -1.87130430      11
Co    -1.70581211    1.71361042   -0.01053215      12
Cr     1.69570609    1.70221358   -0.02645490      13
Co     1.77355180   -1.70952005    0.04307935      14
Cr     1.71686275    0.01836269    1.68802863      15
Co     0.01814480    1.77181812   -1.73865326      16
Co     1.77915087    0.04401613   -1.75538637      17
Co    -0.77375378   -0.91773885   -0.03789303      18
          18
Lattice="  24.8920   0.0000   0.0000   0.0000  24.8920   0.0000   0.0000   0.0000  24.8920 " ConfE="      -5943.1546" DelE="          0.0584"
Ni    -3.55731153    0.00635274    0.03019474       1
Ni     0.02628728    0.00107372    3.58048835       2
Ni     0.03292839    0.02468227   -3.55163598       3
Co     0.01347946   -3.55323035    0.03277991       4
Cr     0.03430187    3.65452379    0.05838514       5
Cr     3.58833278    0.00711455    0.00695537       6
Ni    -1.75369237    0.01168274    1.76636989       7
Ni     0.00807148   -1.75260023    1.75687550       8
Cr    -1.64021333    0.00337143   -1.61782925       9
Ni     0.01242843    1.75321351    1.77100952      10
Cr     0.02121153   -1.73519355   -1.65644168      11
Co    -1.73597089    1.79688712   -0.01031393      12
Cr     1.76349606    1.76491016   -0.00161002      13
Co     1.79018878   -1.72630176    0.03192364      14
Cr     1.74170042    0.03416688    1.68896691      15
Co     0.02506909    1.78123197   -1.69690361      16
Co     1.75628703    0.04287994   -1.70057536      17
Co    -1.75878047   -1.78218091    0.01264466      18
