          18
Lattice="  24.8920   0.0000   0.0000   0.0000  24.8920   0.0000   0.0000   0.0000  24.8920 " ConfE="      -5949.2193" DelE="          0.0000"
Cr     3.34836193   -0.00283215   -0.09289765       1
Cr     0.03122245    0.07850716   -3.51002449       2
Co    -3.63025724   -0.01444783    0.04250125       3
Ni    -0.06136745   -0.05622491    3.57411263       4
Co    -0.00224838    3.46574792    0.01970265       5
Co    -0.08670171   -3.54341101   -0.00843540       6
Cr     1.68776393    1.67670749   -0.06038572       7
Co     1.72186659   -1.72056910   -0.00898508       8
Co    -0.01492707    1.69551042   -1.78769971       9
Ni    -0.02729524   -1.72788208   -1.75102097      10
Co     1.70599603   -0.03188064    1.82792822      11
Cr    -1.87102740    0.02068553   -1.75268945      12
Co    -1.83084832   -0.03662503    1.77439152      13
Cr    -0.02405687    1.69865792    1.77375345      14
Cr    -0.05711626   -1.78095383    1.74131819      15
Ni    -1.82419909    1.73600402    0.01611089      16
Cr    -1.83058883   -1.74276221   -0.00004659      17
Co     0.00000000    0.00000000    0.00000000      18
          18
Lattice="  24.8920   0.0000   0.0000   0.0000  24.8920   0.0000   0.0000   0.0000  24.8920 " ConfE="      -5948.4229" DelE="          0.7964"
Cr     3.41157019    0.01230145   -0.07469665       1
Cr     0.04792431    0.06456517   -3.48799449       2
Co    -3.62445754   -0.00765910    0.03015577       3
Ni    -0.05064519   -0.05883095    3.56394208       4
Co    -0.02847381    3.52226538    0.02984921       5
Co    -0.10964583   -3.62617349   -0.00324015       6
Cr     1.68183039    1.93407989    0.00480468       7
Co     1.67009892   -1.89289202    0.06979398       8
Co    -0.12010770    1.86029224   -1.83400958       9
Ni    -0.08140418   -1.85681398   -1.74358037      10
Co     1.64427921   -0.00776078    1.67780382      11
Cr    -1.73832129    0.03899784   -1.71195584      12
Co    -1.79409337   -0.04440682    1.73686458      13
Cr    -0.00538523    1.65267813    1.71640112      14
Cr    -0.01889657   -1.72969178    1.64749610      15
Ni    -1.78038522    1.71937608    0.01097931      16
Cr    -1.78106606   -1.69731279    0.00777643      17
Co     1.07191567    0.07469928   -1.02646432      18
          18
Lattice="  24.8920   0.0000   0.0000   0.0000  24.8920   0.0000   0.0000   0.0000  24.8920 " ConfE="      -5948.9141" DelE="          0.3052"
Cr     3.43732751    0.01013998   -0.05277777       1
Cr     0.00524680    0.05886614   -3.57674727       2
Co    -3.64218322   -0.00985566    0.04293958       3
Ni    -0.05972645   -0.05665277    3.58819994       4
Co    -0.00342584    3.48770336    0.02641015       5
Co    -0.10875871   -3.57686220   -0.01198858       6
Cr     1.65083675    1.68241634   -0.02520889       7
Co     1.63794445   -1.73303094    0.04740003       8
Co    -0.05458597    1.71098368   -1.75162498       9
Ni    -0.07229516   -1.72869627   -1.71035831      10
Co     1.65561626   -0.01568400    1.76526074      11
Cr    -1.81729526    0.02922840   -1.73227911      12
Co    -1.79732371   -0.05046613    1.74443978      13
Cr    -0.01298969    1.64990145    1.73802433      14
Cr    -0.05082075   -1.73418034    1.69653356      15
Ni    -1.79298044    1.70934301    0.02132812      16
Cr    -1.81508880   -1.70148193    0.01745642      17
Co     1.67830251    0.01279974   -1.70753127      18
