          18
Lattice="  24.8920   0.0000   0.0000   0.0000  24.8920   0.0000   0.0000   0.0000  24.8920 " ConfE="      -5939.4030" DelE="          0.0000"
Cr    -0.03581423    3.46980822    0.03624387       1
Cr     3.54648593    0.05054620    0.03890991       2
Ni    -0.02688512   -3.61315123    0.00081804       3
Co    -3.63478385   -0.06641653   -0.00896550       4
Co     0.02069459   -0.09699425   -3.49386017       5
Co    -0.02133867   -0.02506433    3.52136881       6
Ni    -0.02740280    1.72844555   -1.75727470       7
Cr    -0.02003564    1.71995698    1.73899150       8
Cr     1.83701362    0.13915527   -1.60947145       9
Cr     1.78469527    0.02249995    1.67694138      10
Cr    -1.89466684    1.72217444    0.00300304      11
Ni     1.75019577   -1.82414442   -0.00620577      12
Cr    -1.81623415   -1.81048534   -0.03344076      13
Cr    -1.86649747   -0.04773632   -1.77840914      14
Ni    -1.81023048   -0.06773189    1.77203961      15
Cr    -0.03228842   -1.79986894   -1.75832328      16
Ni    -0.01846328   -1.82210139    1.76361031      17
Co     0.00000000    0.00000000    0.00000000      18
          18
Lattice="  24.8920   0.0000   0.0000   0.0000  24.8920   0.0000   0.0000   0.0000  24.8920 " ConfE="      -5938.8219" DelE="          0.5810"
Cr    -0.02989476    3.43413176    0.03276385       1
Cr     3.46978655    0.09439492    0.04867536       2
Ni    -0.01070761   -3.60194810   -0.00262000       3
Co    -3.63091950   -0.05614526   -0.00789801       4
Co    -0.01060399   -0.10150342   -3.58672121       5
Co    -0.02448451   -0.03526963    3.57232442       6
Ni    -0.09571980    1.74261126   -1.93146404       7
Cr    -0.09428292    1.75603648    1.89223471       8
Cr     1.81091890    0.01079560   -1.84011347       9
Cr     1.82344179   -0.04671203    1.86369304      10
Cr    -1.79192714    1.66003523   -0.00515794      11
Ni     1.72067627   -1.73491744    0.00856660      12
Cr    -1.76107012   -1.72985749   -0.03144786      13
Cr    -1.82121383   -0.03893995   -1.77532653      14
Ni    -1.77144783   -0.05575928    1.76771910      15
Cr    -0.02002014   -1.71180713   -1.72085124      16
Ni    -0.00714915   -1.78452153    1.76017227      17
Co     0.92412797    0.96787289    0.02583950      18
          18
Lattice="  24.8920   0.0000   0.0000   0.0000  24.8920   0.0000   0.0000   0.0000  24.8920 " ConfE="      -5939.2698" DelE="          0.1331"
Cr    -0.06803860    3.52024904    0.04555340       1
Cr     3.59598490    0.01826422    0.03244305       2
Ni    -0.02498880   -3.62454524   -0.00354651       3
Co    -3.64551914   -0.06441624   -0.00805075       4
Co    -0.00883700   -0.09065157   -3.54216212       5
Co    -0.02806869   -0.02639505    3.54173518       6
Ni    -0.04637387    1.67843480   -1.74426710       7
Cr    -0.03824031    1.68989130    1.72875306       8
Cr     1.76289970   -0.02336981   -1.69339610       9
Cr     1.76184194   -0.02172684    1.70576191      10
Cr    -1.84448235    1.69006840    0.00914726      11
Ni     1.72689682   -1.78450053    0.00625438      12
Cr    -1.80430648   -1.78534471   -0.03448357      13
Cr    -1.84045861   -0.05359286   -1.75616447      14
Ni    -1.78665620   -0.06761667    1.74726877      15
Cr    -0.04275615   -1.74981882   -1.71957867      16
Ni    -0.02434656   -1.80175763    1.74374585      17
Co     1.68892954    1.68704606    0.00557509      18
