          18
Lattice="  24.8920   0.0000   0.0000   0.0000  24.8920   0.0000   0.0000   0.0000  24.8920 " ConfE="      -5950.6899" DelE="          0.0000"
Cr     0.03253635   -3.53444105   -0.03031550       1
Co    -0.00982461    0.00705637   -3.54125206       2
Ni     0.02723276    3.55852993    0.02106096       3
Cr    -0.06553820   -0.02270339    3.57121386       4
Cr    -3.53638423   -0.00832832    0.04298699       5
Cr     3.54420570   -0.06315622   -0.01127176       6
Ni    -1.72129183   -1.79538236   -0.01545945       7
Ni     1.73911712   -1.76016807   -0.00838449       8
Ni    -1.73230836   -0.01061348   -1.74886041       9
Ni     1.75385300    0.00251063   -1.77515023      10
Ni    -0.01251901   -1.77133970    1.80095910      11
Co     0.01417979    1.82851855   -1.79683109      12
Ni    -0.02352431    1.76574490    1.80141437      13
Co    -1.80749907    0.01877424    1.78448144      14
Ni     1.75504437    0.01534625    1.78475167      15
Co    -1.80400006    1.79249209   -0.01476789      16
Ni     1.78931104    1.78281802    0.01611272      17
Ni     0.00000000    0.00000000    0.00000000      18
          18
Lattice="  24.8920   0.0000   0.0000   0.0000  24.8920   0.0000   0.0000   0.0000  24.8920 " ConfE="      -5950.0842" DelE="          0.6057"
Cr     0.05680397   -3.43670162   -0.09345387       1
Co     0.00863289    0.00453852   -3.52496444       2
Ni     0.02559469    3.54786372    0.01322768       3
Cr    -0.06933977   -0.04093365    3.58553281       4
Cr    -3.59581750    0.00249466    0.05472119       5
Cr     3.59207927   -0.03175841    0.00302157       6
Ni    -1.89213051   -1.82423774    0.05520979       7
Ni     1.90810951   -1.79326944    0.03301463       8
Ni    -1.87367926    0.02652350   -1.78264057       9
Ni     1.88512342    0.02626486   -1.81925121      10
Ni    -0.02496597   -1.76063967    1.74451842      11
Co     0.01797686    1.76663689   -1.77701297      12
Ni    -0.03119009    1.71661712    1.76986793      13
Co    -1.81138691    0.00589939    1.75440816      14
Ni     1.72603393   -0.00607787    1.74545950      15
Co    -1.78759729    1.74796840   -0.02130466      16
Ni     1.76623100    1.74007025   -0.00097367      17
Ni     0.00589346   -0.66071446   -0.59673722      18
          18
Lattice="  24.8920   0.0000   0.0000   0.0000  24.8920   0.0000   0.0000   0.0000  24.8920 " ConfE="      -5951.2689" DelE="         -0.5790"
Cr     0.00826661   -3.57771010    0.03159407       1
Co     0.00222428    0.05200319   -3.57669194       2
Ni     0.02902723    3.57421369    0.02483610       3
Cr    -0.06712606   -0.02056993    3.58336560       4
Cr    -3.57245772    0.00293761    0.05002479       5
Cr     3.56970276   -0.05132623   -0.00262735       6
Ni    -1.73723922   -1.75433956    0.01906102       7
Ni     1.74654169   -1.74325207    0.01914973       8
Ni    -1.72705491    0.01905255   -1.70978270       9
Ni     1.76345181    0.02669424   -1.74753180      10
Ni    -0.01620564   -1.73863376    1.76983456      11
Co     0.01348612    1.80112407   -1.77221885      12
Ni    -0.02795494    1.74385697    1.77971170      13
Co    -1.79997053    0.02845434    1.76364286      14
Ni     1.72328743    0.01991004    1.75195240      15
Co    -1.78396558    1.77994987   -0.00586894      16
Ni     1.76283969    1.76392743    0.01312804      17
Ni     0.02268785   -1.74900211   -1.74703587      18
