          18
Lattice="  24.8920   0.0000   0.0000   0.0000  24.8920   0.0000   0.0000   0.0000  24.8920 " ConfE="      -5943.6442" DelE="          0.0000"
Ni     0.00156624    3.55896269    0.01050833       1
Co     0.01086842   -3.54406979    0.08098732       2
Cr    -0.05306601   -0.03661691    3.59246232       3
Cr    -0.02550967   -0.00955616   -3.51882574       4
Co     3.58060951   -0.06072015   -0.01097830       5
Co    -3.53300109    0.00710461    0.06377606       6
Ni     1.69379564   -0.03434807    1.79324685       7
Ni    -1.72090116   -0.05064045    1.79111849       8
Ni    -1.72322869   -1.79111017    0.06512737       9
Ni     1.76264818    1.77837158    0.01839599      10
Co     1.77461966   -1.82007222   -0.00725368      11
Ni     1.77362714    0.01117901   -1.76020922      12
Co    -0.05266270    1.79335315    1.75402889      13
Cr    -0.02565535    1.72599036   -1.75146154      14
Cr    -1.68863284    1.71188155    0.02508977      15
Co     0.00431788   -1.78516840   -1.79183273      16
Co    -1.75666750   -0.01816105   -1.75593022      17
Co     0.00000000    0.00000000    0.00000000      18
          18
Lattice="  24.8920   0.0000   0.0000   0.0000  24.8920   0.0000   0.0000   0.0000  24.8920 " ConfE="      -5942.7153" DelE="          0.9289"
Ni    -0.00471044    3.53897003    0.02026437       1
Co    -0.00614191   -3.46076356    0.12372626       2
Cr    -0.02918662   -0.10259283    3.47481827       3
Cr    -0.01874746   -0.03013414   -3.53346944       4
Co     3.65864007   -0.06782420   -0.02750431       5
Co    -3.62486782    0.03266637    0.03322858       6
Ni     1.93334408    0.04487326    1.82089868       7
Ni    -1.91225806   -0.02737504    1.81010715       8
Ni    -1.91332690   -1.80274752    0.03131777       9
Ni     1.75736744    1.73914654    0.02374734      10
Co     1.93304788   -1.88301948   -0.03893412      11
Ni     1.74469778   -0.01885369   -1.68535698      12
Co    -0.05071514    1.65091240    1.69058847      13
Cr    -0.04605890    1.63303527   -1.67486075      14
Cr    -1.69232674    1.66581803    0.02864143      15
Co    -0.01255356   -1.74827160   -1.68975688      16
Co    -1.74632913   -0.00799627   -1.70359237      17
Co     0.06511351   -0.87060224    0.86700758      18
          18
Lattice="  24.8920   0.0000   0.0000   0.0000  24.8920   0.0000   0.0000   0.0000  24.8920 " ConfE="      -5943.7790" DelE="         -0.1348"
Ni    -0.00255436    3.56832550    0.00656026       1
Co     0.00073914   -3.59187038    0.05008398       2
Cr    -0.04529020   -0.03114657    3.62802809       3
Cr    -0.02340393   -0.00268669   -3.56702493       4
Co     3.59718088   -0.06586811   -0.01822019       5
Co    -3.54980436    0.01526259    0.06098594       6
Ni     1.70049036   -0.01850226    1.76649344       7
Ni    -1.72838182   -0.02988379    1.77186060       8
Ni    -1.71368832   -1.75792956    0.03535621       9
Ni     1.72706665    1.75034056    0.00293231      10
Co     1.76918428   -1.81560340   -0.01387775      11
Ni     1.73824723    0.01053547   -1.73810113      12
Co    -0.06083316    1.74179499    1.70983319      13
Cr    -0.03986567    1.69803814   -1.74051394      14
Cr    -1.66213341    1.70490133    0.01820236      15
Co     0.01086080   -1.76142795   -1.75926615      16
Co    -1.69810774    0.01756968   -1.71334268      17
Co     0.00108473   -1.80478246    1.82678841      18
