          19
Lattice="  24.8920   0.0000   0.0000   0.0000  24.8920   0.0000   0.0000   0.0000  24.8920 " ConfE="      -5945.1317" DelE="          0.0000"
Co     0.01031187    0.00151406   -3.51386836       1
Ni     2.71893230   -0.95513928   -1.74809474       2
Ni    -0.00236812    3.52314533    0.02665378       3
Cr     3.56750750   -0.01004651    0.17959804       4
Cr    -3.54378964    0.01245677   -0.02066263       5
Ni    -0.04095549   -3.56600009    0.00883152       6
Co    -0.05444326    0.01286821    3.57653256       7
Ni     0.01958814    1.75453079   -1.76206473       8
Co     1.82493276    1.72883225   -0.01369819       9
Cr    -1.78773011    0.02474937   -1.77062232      10
Cr     0.05887966   -1.66699491   -1.75741848      11
Co    -1.82180908    1.74121138    0.02079005      12
Co    -0.03974823    1.76020643    1.80430480      13
Co     1.71573693    0.02312607    1.82751662      14
Co    -1.81443449   -1.74879106   -0.01955621      15
Co     1.64709247   -1.80115631    0.16392308      16
Co    -1.80367620   -0.02931280    1.80006477      17
Cr    -0.06477389   -1.74598393    1.81871344      18
Ni     0.00000000    0.00000000    0.00000000      19
          19
Lattice="  24.8920   0.0000   0.0000   0.0000  24.8920   0.0000   0.0000   0.0000  24.8920 " ConfE="      -5944.4199" DelE="          0.7118"
Co    -0.00472817    0.02635190   -3.46626605       1
Ni     2.97886815   -1.28267112   -1.71041621       2
Ni    -0.03044249    3.60829294    0.02734979       3
Cr     3.47172823   -0.00076356    0.15445452       4
Cr    -3.56222127    0.02129868   -0.04529266       5
Ni    -0.05316369   -3.64566155    0.02690104       6
Co    -0.04083966    0.01721676    3.56650640       7
Ni    -0.05024613    1.91742691   -1.79711430       8
Co     1.84422488    1.96811678    0.06711972       9
Cr    -1.69884689    0.03910854   -1.68070171      10
Cr    -0.05197385   -1.84665190   -1.75024192      11
Co    -1.77558822    1.72556135    0.00287398      12
Co    -0.03444248    1.75300622    1.75925725      13
Co     1.68604033    0.01963073    1.73881409      14
Co    -1.76802477   -1.75148639   -0.02762769      15
Co     1.67273483   -1.94548708    0.17117290      16
Co    -1.73836814   -0.04105725    1.72620381      17
Cr    -0.04560100   -1.70974427    1.71607977      18
Ni     0.79657169    0.02051893   -0.71293910      19
          19
Lattice="  24.8920   0.0000   0.0000   0.0000  24.8920   0.0000   0.0000   0.0000  24.8920 " ConfE="      -5945.4013" DelE="         -0.2696"
Co    -0.01538417    0.01067374   -3.51534816       1
Ni     3.47019520   -1.75858074   -1.75273119       2
Ni    -0.01080294    3.53428861    0.02309985       3
Cr     3.50655511   -0.04908935    0.00152185       4
Cr    -3.55589953    0.02147637   -0.02442992       5
Ni    -0.04540086   -3.56353307    0.01015519       6
Co    -0.05454831    0.00915882    3.55787008       7
Ni     0.00623518    1.77156250   -1.77245333       8
Co     1.80748133    1.73742211   -0.03226638       9
Cr    -1.80447833    0.03436865   -1.77888970      10
Cr     0.00233348   -1.69780957   -1.74138447      11
Co    -1.82838838    1.74664571    0.01454633      12
Co    -0.04184751    1.75638839    1.78897759      13
Co     1.70650732    0.00803079    1.79028717      14
Co    -1.83218689   -1.75462017   -0.02143434      15
Co     1.69103070   -1.75929826   -0.03206845      16
Co    -1.80837768   -0.02918820    1.78809200      17
Cr    -0.06455683   -1.73963755    1.78494967      18
Ni    -0.01021967    0.00065424   -0.02352463      19
