          18
Lattice="  24.8920   0.0000   0.0000   0.0000  24.8920   0.0000   0.0000   0.0000  24.8920 " ConfE="      -5926.6286" DelE="          0.0000"
Co     3.54368602    0.02657216   -0.00571005       1
Cr    -0.06489117    3.69116063    0.00798768       2
Cr    -0.05494433    0.08827309    3.45796598       3
Cr    -0.02471667   -3.48977741   -0.04226713       4
Cr    -3.56499442    0.06557209   -0.06106183       5
Cr    -0.00251998    0.08573270   -3.49610430       6
Ni     1.79881517   -0.00822625    1.73252878       7
Cr     0.23440336    1.84110011    1.55029419       8
Co     1.75194267    0.02983479   -1.75344123       9
Cr     0.14973878    1.85941507   -1.58272918      10
Ni    -0.02380004   -1.76612636    1.76275329      11
Co     1.76083801   -1.83428249   -0.04564639      12
Co    -1.81819305    1.88365820    0.00717364      13
Cr    -1.81180858    0.07979181    1.73992494      14
Cr    -1.83070080   -1.73277016   -0.03194250      15
Co    -0.05650338   -1.72515920   -1.80746455      16
Cr    -1.79279456    0.14518100   -1.79607726      17
Ni     0.00000000    0.00000000    0.00000000      18
          18
Lattice="  24.8920   0.0000   0.0000   0.0000  24.8920   0.0000   0.0000   0.0000  24.8920 " ConfE="      -5925.9350" DelE="          0.6936"
Co     3.51569850    0.03309064    0.01755287       1
Cr    -0.04416581    3.63380742   -0.00414359       2
Cr    -0.11775500   -0.00330001    3.55527725       3
Cr     0.01130188   -3.50993515   -0.04794845       4
Cr    -3.60946205    0.07753704   -0.07240380       5
Cr    -0.02404891    0.04467866   -3.54401408       6
Ni     1.75827163    0.01232950    1.85316124       7
Cr    -0.22727668    1.87131462    2.00277073       8
Co     1.74312887    0.02569727   -1.81939950       9
Cr    -0.02385760    1.93312412   -1.93221013      10
Ni    -0.01186182   -1.73984641    1.73420750      11
Co     1.73630141   -1.76902444   -0.03593557      12
Co    -1.80180203    1.92857171   -0.03038156      13
Cr    -1.71930048    0.02392438    1.52786959      14
Cr    -1.75406810   -1.73646520   -0.08437686      15
Co    -0.04152239   -1.67285298   -1.76774746      16
Cr    -1.70439750    0.16433009   -1.63160986      17
Ni     0.66982643    1.05034575    0.05906601      18
          18
Lattice="  24.8920   0.0000   0.0000   0.0000  24.8920   0.0000   0.0000   0.0000  24.8920 " ConfE="      -5926.6714" DelE="         -0.0428"
Co     3.57519155    0.05608342   -0.01172917       1
Cr    -0.06966392    3.68257368    0.00594787       2
Cr    -0.11049020    0.05421500    3.48874464       3
Cr     0.00014451   -3.50945798   -0.05481205       4
Cr    -3.66235537    0.06297277   -0.06898991       5
Cr    -0.03132719    0.05027543   -3.51285096       6
Ni     1.75149905    0.02261958    1.74214089       7
Cr    -0.10160811    1.75440817    1.67317052       8
Co     1.71945457    0.06554203   -1.74240019       9
Cr    -0.05198898    1.80543519   -1.67504007      10
Ni    -0.02216837   -1.72316601    1.69820284      11
Co     1.75354896   -1.76152682   -0.04821231      12
Co    -1.84876262    1.91140205   -0.02088215      13
Cr    -1.78463123    0.00790092    1.53666070      14
Cr    -1.80761015   -1.76677069   -0.07577882      15
Co    -0.05908317   -1.64908559   -1.73761999      16
Cr    -1.79026828    0.11263262   -1.65384806      17
Ni     1.72722399    1.80256231    0.02897567      18
