          18
Lattice="  24.8920   0.0000   0.0000   0.0000  24.8920   0.0000   0.0000   0.0000  24.8920 " ConfE="      -5926.8942" DelE="          0.0000"
Ni     0.06117318    0.00773692    3.46147640       1
Ni     0.04391993   -3.57792963   -0.05191531       2
Cr    -0.05182257    3.68393015    0.05750752       3
Cr     0.01092239    0.04294090   -3.57098147       4
Cr     3.56241937    0.05425137   -0.03856661       5
Cr    -3.49104669    0.12498094   -0.05830795       6
Cr     1.81307727    0.04927189    1.70507979       7
Cr    -1.78487710    0.05779256    1.73769447       8
Cr     1.47984210    1.82597059    0.20374282       9
Cr    -1.65790832    1.86670256    0.06093766      10
Ni     0.03758224   -1.77814047   -1.80444389      11
Ni     1.83568684   -1.79387348   -0.02995222      12
Cr     1.78083817    0.03445896   -1.75589277      13
Co    -1.74524980    0.07567400   -1.80587499      14
Cr    -0.01448723    1.82310269   -1.84128253      15
Cr    -0.01255932   -1.81788464    1.71614166      16
Cr    -1.76161656   -1.76666588   -0.05666590      17
Co     0.00000000    0.00000000    0.00000000      18
          18
Lattice="  24.8920   0.0000   0.0000   0.0000  24.8920   0.0000   0.0000   0.0000  24.8920 " ConfE="      -5922.6548" DelE="          4.2394"
Ni     0.07979194   -0.01377566    3.54814413       1
Ni    -0.01169091   -3.62793798   -0.05279291       2
Cr    -0.10752395    3.69766725    0.04896783       3
Cr    -0.01921021    0.01107383   -3.69903114       4
Cr     4.07210154    0.22282809    0.53062985       5
Cr    -3.47421383    0.12609191   -0.06790296       6
Cr     1.62717878    0.08659317    1.63799256       7
Cr    -1.57101065    0.10893976    1.73908994       8
Cr     1.43861175    1.76826955    0.21246625       9
Cr    -1.56270661    1.71512630   -0.01548818      10
Ni    -0.00180971   -1.89476491   -1.85054514      11
Ni     1.69512310   -1.88982892   -0.03056271      12
Cr     3.09539590   -0.27607753   -0.84666591      13
Co    -1.61737015    0.08254030   -1.83003399      14
Cr    -0.10440268    2.04687053   -1.92633486      15
Cr     0.00485098   -1.81730554    1.73642652      16
Cr    -1.59516052   -1.51967464   -0.03719103      17
Co     1.12728768    0.19535021   -1.69063782      18
          18
Lattice="  24.8920   0.0000   0.0000   0.0000  24.8920   0.0000   0.0000   0.0000  24.8920 " ConfE="      -5922.8039" DelE="          4.0904"
Ni     0.06132839   -0.02311450    3.55215321       1
Ni    -0.01056733   -3.60758767   -0.05965895       2
Cr    -0.10536214    3.67509064    0.04565324       3
Cr    -0.02693500    0.03195547   -3.64015735       4
Cr     4.18735080    0.56577819    0.49771747       5
Cr    -3.50853122    0.13185950   -0.03470426       6
Cr     1.63593811    0.08812240    1.67832122       7
Cr    -1.59732341    0.10691391    1.72500717       8
Cr     1.43312048    1.72522120    0.19538186       9
Cr    -1.61646717    1.75731230    0.00012997      10
Ni     0.00690933   -1.77723298   -1.82407650      11
Ni     1.67959641   -1.85390050   -0.03258388      12
Cr     3.29352816   -0.36297494   -0.61074360      13
Co    -1.73696824    0.07457211   -1.81155367      14
Cr    -0.05028315    1.86374434   -1.87975993      15
Cr    -0.01559178   -1.79101287    1.71353861      16
Cr    -1.67630833   -1.58800102   -0.03789313      17
Co     1.53375397    0.16503994   -1.83564286      18
