          18
Lattice="  24.8920   0.0000   0.0000   0.0000  24.8920   0.0000   0.0000   0.0000  24.8920 " ConfE="      -5925.1079" DelE="          0.0000"
Ni    -0.05650631    3.47623987    0.08999692       1
Co     3.36040456   -0.02881184    0.08370640       2
Ni    -0.07387345   -3.58713480    0.07205890       3
Cr    -3.68671559    0.02233698    0.10886036       4
Co    -0.10995420   -0.00675055   -3.44645214       5
Cr    -0.07504369   -0.02352546    3.65157430       6
Cr    -0.02941034    1.75304561   -1.72061663       7
Ni    -0.02579210    1.72448045    1.81284425       8
Cr     1.68040925    0.00371809   -1.72789353       9
Ni     1.67729052   -0.03662290    1.83313072      10
Ni    -1.87057476    1.73639535    0.07833600      11
Cr     1.67469698   -1.84015717    0.07282897      12
Ni    -1.83889792   -1.80674125    0.06527834      13
Ni    -1.86587422   -0.00186735   -1.68742482      14
Ni    -1.84205439   -0.03835932    1.84740755      15
Cr    -0.06732732   -1.83364715   -1.75691485      16
Ni    -0.07321380   -1.81005316    1.83955857      17
Cr     0.00000000    0.00000000    0.00000000      18
          18
Lattice="  24.8920   0.0000   0.0000   0.0000  24.8920   0.0000   0.0000   0.0000  24.8920 " ConfE="      -5924.7019" DelE="          0.4060"
Ni    -0.05299667    3.45017569    0.10911618       1
Co     3.31874322   -0.03120166    0.08233140       2
Ni    -0.07562630   -3.60231256    0.09088091       3
Cr    -3.65115223    0.05280312    0.11861473       4
Co    -0.10055396   -0.00290278   -3.46965425       5
Cr    -0.08697507   -0.03816663    3.72241560       6
Cr    -0.17517173    1.87127635   -1.87467120       7
Ni    -0.06847584    1.73078519    1.93069537       8
Cr     1.70892253   -0.09689685   -1.89190112       9
Ni     1.66664277   -0.04967827    1.90612848      10
Ni    -1.81763051    1.72142297    0.09998426      11
Cr     1.63771133   -1.79484661    0.07146553      12
Ni    -1.80538509   -1.77396571    0.08604919      13
Ni    -1.78688401    0.01218051   -1.64602313      14
Ni    -1.82343206   -0.03155311    1.87033861      15
Cr    -0.04668819   -1.76410380   -1.64734281      16
Ni    -0.06400080   -1.78413831    1.83289399      17
Cr     0.75679187    0.85598655   -0.10778614      18
          18
Lattice="  24.8920   0.0000   0.0000   0.0000  24.8920   0.0000   0.0000   0.0000  24.8920 " ConfE="      -5925.3963" DelE="         -0.2884"
Ni    -0.09095607    3.51860366    0.08931394       1
Co     3.42392572   -0.04641555    0.08415183       2
Ni    -0.07793905   -3.60977477    0.08362393       3
Cr    -3.67372129    0.02394145    0.11447868       4
Co    -0.11733329   -0.02175237   -3.48212240       5
Cr    -0.08568001   -0.03289879    3.66127069       6
Cr    -0.05222318    1.71373884   -1.69930393       7
Ni    -0.06817955    1.70275107    1.82066345       8
Cr     1.63522709   -0.03887868   -1.70627851       9
Ni     1.64825040   -0.05915454    1.81769373      10
Ni    -1.84177978    1.71488914    0.08088162      11
Cr     1.61536126   -1.76794704    0.05128059      12
Ni    -1.83085018   -1.81234838    0.07857406      13
Ni    -1.81609949   -0.01919954   -1.65091918      14
Ni    -1.84884145   -0.05174951    1.85940821      15
Cr    -0.06655321   -1.82091410   -1.70635445      16
Ni    -0.08468146   -1.81330837    1.83564438      17
Cr     1.65404490    1.66506528    0.04015016      18
