          18
Lattice="  24.8920   0.0000   0.0000   0.0000  24.8920   0.0000   0.0000   0.0000  24.8920 " ConfE="      -5940.8074" DelE="          0.0000"
Ni    -3.54697422    0.02484651    0.01955059       1
Ni    -0.00391908    0.03097625    3.52133098       2
Ni     0.00257776    3.57915314   -0.02995815       3
Cr     0.00377762    0.01530708   -3.52395581       4
Co     3.55315380    0.06588447   -0.02445353       5
Cr     0.02504125   -3.49568121    0.00044434       6
Co    -1.74978971    1.75483915    0.06072734       7
Cr     0.01953228    1.79035619    1.75143999       8
Cr    -1.75483482   -1.74550322    0.01643132       9
Co     0.01726283   -1.71817977    1.76575364      10
Cr     1.78308491    1.84370537   -0.00677068      11
Cr    -0.00444106    1.74607233   -1.77826604      12
Cr    -1.79173632   -0.01342626   -1.77990087      13
Cr     1.81770892    0.02694665    1.72302951      14
Cr     1.83422392   -0.03309954   -1.78247576      15
Cr     1.84566844   -1.81246376   -0.02530344      16
Co     0.02252783   -1.75564648   -1.78868510      17
Ni     0.00000000    0.00000000    0.00000000      18
          18
Lattice="  24.8920   0.0000   0.0000   0.0000  24.8920   0.0000   0.0000   0.0000  24.8920 " ConfE="      -5939.8124" DelE="          0.9950"
Ni    -3.51983909    0.02346764    0.01353773       1
Ni    -0.01482277    0.02703420    3.47637555       2
Ni     0.01596714    3.67494748   -0.04710141       3
Cr    -0.00586032    0.02342826   -3.50850407       4
Co     3.55584731    0.06856110   -0.01954986       5
Cr     0.05514228   -3.62154829   -0.01848223       6
Co    -1.79089012    1.98184072   -0.04492812       7
Cr     0.07168707    1.94843602    1.74416070       8
Cr    -1.76164151   -1.90407869   -0.03431154       9
Co     0.09054731   -1.87110668    1.75264710      10
Cr     1.76249518    1.88272468   -0.02491564      11
Cr    -0.02244966    1.73048737   -1.67762801      12
Cr    -1.69108661   -0.01123421   -1.65599731      13
Cr     1.62596131    0.04821485    1.53053184      14
Cr     1.72254450   -0.00640909   -1.65365283      15
Cr     1.81673703   -1.82680596   -0.00413367      16
Co     0.02157265   -1.70967431   -1.68576546      17
Ni    -1.17014420    0.04091732    1.10732774      18
          18
Lattice="  24.8920   0.0000   0.0000   0.0000  24.8920   0.0000   0.0000   0.0000  24.8920 " ConfE="      -5940.3495" DelE="          0.4579"
Ni    -3.58863520    0.01958422   -0.00125457       1
Ni     0.02092282    0.03224791    3.54341977       2
Ni     0.00675016    3.61802371   -0.03311476       3
Cr     0.00151513    0.01497392   -3.53064839       4
Co     3.58487088    0.06493680   -0.02962442       5
Cr     0.03710667   -3.56118243   -0.01166131       6
Co    -1.70900961    1.77615634   -0.01637990       7
Cr     0.05664960    1.79610993    1.69920480       8
Cr    -1.71299077   -1.75374617   -0.01869315       9
Co     0.05867133   -1.70877835    1.71353018      10
Cr     1.78104889    1.85178116   -0.03079252      11
Cr    -0.00365187    1.70282935   -1.70451807      12
Cr    -1.72750070   -0.01901101   -1.70673412      13
Cr     1.72641665    0.02619506    1.57917464      14
Cr     1.76904852   -0.01570119   -1.68341250      15
Cr     1.84132980   -1.82113508   -0.03250520      16
Co     0.03219271   -1.70510077   -1.71868864      17
Ni    -1.73091871    0.03194432    1.71256102      18
