          18
Lattice="  24.8920   0.0000   0.0000   0.0000  24.8920   0.0000   0.0000   0.0000  24.8920 " ConfE="      -5947.5020" DelE="          0.0000"
Cr    -3.50312971   -0.01032096   -0.02088843       1
Co     0.04106196   -3.53375832   -0.04651563       2
Ni     3.62699009   -0.02328534   -0.01282231       3
Cr     0.05925770    3.59737082   -0.00435992       4
Cr     0.00985734   -0.02303168   -3.52319842       5
Co     0.07703441   -0.00085035    3.52502806       6
Ni    -1.75468687   -0.00703871   -1.73959968       7
Cr    -1.72174454    0.01374511    1.71781383       8
Cr    -0.10393680   -1.83684277   -1.70176290       9
Ni     0.02797122   -1.77105479    1.73588919      10
Cr    -1.72808753    1.84440717    0.00905906      11
Co     1.83861894   -1.77841358   -0.03121491      12
Cr     1.86044676    1.75488021   -0.01709576      13
Co     0.03729790    1.77325726   -1.75751194      14
Ni     0.07870068    1.78130295    1.77978861      15
Cr     1.76065878   -0.04839855   -1.75863984      16
Cr     1.82889439   -0.03755929    1.73285292      17
Co     0.00000000    0.00000000    0.00000000      18
          18
Lattice="  24.8920   0.0000   0.0000   0.0000  24.8920   0.0000   0.0000   0.0000  24.8920 " ConfE="      -5946.7523" DelE="          0.7497"
Cr    -3.45554804   -0.01411328   -0.04263927       1
Co     0.00852375   -3.49283229   -0.03947723       2
Ni     3.61443358   -0.02379365   -0.00679806       3
Cr     0.04397112    3.60164355    0.00094243       4
Cr     0.01984632   -0.00653368   -3.61546684       5
Co     0.08781825    0.00527240    3.59225807       6
Ni    -1.78862331    0.08025575   -1.92070938       7
Cr    -1.72467476    0.05095608    1.84540027       8
Cr    -0.08694932   -1.84372864   -1.85559995       9
Ni     0.09690876   -1.81200850    1.90383477      10
Cr    -1.64935737    1.73974141    0.00740392      11
Co     1.73226353   -1.73087869   -0.01327496      12
Cr     1.76749334    1.70705479   -0.02150268      13
Co     0.02505776    1.73302633   -1.74649843      14
Ni     0.07165696    1.73802688    1.78101671      15
Cr     1.64318396   -0.08489990   -1.67355785      16
Cr     1.76399887   -0.05819979    1.68171599      17
Co    -0.90767445   -0.91877990    0.00368303      18
          18
Lattice="  24.8920   0.0000   0.0000   0.0000  24.8920   0.0000   0.0000   0.0000  24.8920 " ConfE="      -5947.2203" DelE="          0.2817"
Cr    -3.55164585    0.02136230   -0.01966727       1
Co     0.06813510   -3.57925362   -0.04081441       2
Ni     3.65182996   -0.02108722   -0.01240193       3
Cr     0.05626147    3.62464700   -0.00460669       4
Cr     0.02346954   -0.00027821   -3.55740624       5
Co     0.08750578    0.00312396    3.53776711       6
Ni    -1.72878216    0.02425018   -1.73662852       7
Cr    -1.68391913    0.02807771    1.70200876       8
Cr    -0.04808057   -1.77580308   -1.75073409       9
Ni     0.06481080   -1.74548686    1.74582414      10
Cr    -1.70778194    1.79725028    0.01537422      11
Co     1.80161754   -1.74827260   -0.03084289      12
Cr     1.85607866    1.75223084   -0.01199284      13
Co     0.05329342    1.73261350   -1.70621673      14
Ni     0.08390518    1.74986905    1.74013024      15
Cr     1.70447502   -0.04221908   -1.66088643      16
Cr     1.80013375   -0.03365157    1.65735147      17
Co    -1.68450226   -1.73200311   -0.00560509      18
