          18
Lattice="  24.8920   0.0000   0.0000   0.0000  24.8920   0.0000   0.0000   0.0000  24.8920 " ConfE="      -5927.5556" DelE="          0.0000"
Ni     0.00563481   -0.01384357   -3.51677327       1
Cr    -0.02565457    3.50785236    0.04029412       2
Co     3.53576474    0.00825122   -0.01928791       3
Cr    -3.61896351   -0.01761346    0.01516270       4
Cr    -0.01028756   -3.61933794    0.02180908       5
Cr    -0.02772141    0.02348537    3.57619614       6
Ni     0.00269306    1.76313263   -1.72890926       7
Cr     1.77347571    0.05946689   -1.64476864       8
Cr    -0.03995386    1.75948210    1.75702631       9
Cr     1.85406917    0.20505827    1.53873795      10
Ni    -1.79841957   -1.81561486    0.01333600      11
Co    -1.78166578   -0.01613406   -1.71185331      12
Cr    -1.87212428    1.79920987    0.02618697      13
Co    -0.02732092   -1.79114808   -1.75446992      14
Co     1.72067131   -1.83881850    0.02875949      15
Cr    -1.84770097   -0.01265948    1.78004227      16
Cr    -0.00256604   -1.80460950    1.79592453      17
Cr     0.00000000    0.00000000    0.00000000      18
          18
Lattice="  24.8920   0.0000   0.0000   0.0000  24.8920   0.0000   0.0000   0.0000  24.8920 " ConfE="      -5926.3608" DelE="          1.1948"
Ni     0.00228088   -0.01866008   -3.65325051       1
Cr    -0.06172884    3.45093279    0.02888085       2
Co     3.45201911   -0.01388498    0.01499751       3
Cr    -3.52643648   -0.04190975    0.01292990       4
Cr    -0.04712757   -3.49713026    0.04431701       5
Cr     0.05116688    0.09512343    3.74471352       6
Ni    -0.05646036    1.72697851   -1.85506977       7
Cr     1.75442630   -0.04473790   -1.86800375       8
Cr    -0.13287803    1.76001146    1.89987987       9
Cr     1.83466371   -0.04957157    2.00883612      10
Ni    -1.13613436   -1.04098122    0.13419252      11
Co    -1.79026144   -0.00337408   -1.89765246      12
Cr    -1.77691499    1.63553970    0.03014470      13
Co    -0.00221363   -1.76110813   -1.86116410      14
Co     1.64235722   -1.75272508    0.06730603      15
Cr    -1.82788636    0.00981336    2.13473473      16
Cr     0.00755408   -1.77220456    2.00176601      17
Cr     0.94511268    0.79385997    0.04606154      18
          18
Lattice="  24.8920   0.0000   0.0000   0.0000  24.8920   0.0000   0.0000   0.0000  24.8920 " ConfE="      -5927.3815" DelE="          0.1741"
Ni    -0.00502817   -0.02772090   -3.54185851       1
Cr    -0.06128024    3.58364331    0.01540940       2
Co     3.54330574   -0.03327177    0.00999977       3
Cr    -3.57726454   -0.01966192    0.06121005       4
Cr    -0.00322914   -3.67919959   -0.03238039       5
Cr     0.01778981    0.06111246    3.61251406       6
Ni    -0.01539265    1.74054627   -1.73235534       7
Cr     1.69488843   -0.02479395   -1.63945858       8
Cr    -0.00262108    1.82244513    1.76632215       9
Cr     1.62113172   -0.06372950    1.61683414      10
Ni    -1.76716860   -1.82487551    0.00034768      11
Co    -1.73679548   -0.02074597   -1.66595800      12
Cr    -1.78669913    1.75381546    0.01022733      13
Co    -0.04163202   -1.80637594   -1.76563681      14
Co     1.67727778   -1.81156474    0.00512451      15
Cr    -1.57865736   -0.00283555    1.65485370      16
Cr    -0.02503933   -1.90195676    1.73515596      17
Cr     1.74949743    1.75422289    0.00303039      18
