          18
Lattice="  24.8920   0.0000   0.0000   0.0000  24.8920   0.0000   0.0000   0.0000  24.8920 " ConfE="      -5923.0150" DelE="          0.0000"
Co    -0.01987859   -3.43130547   -0.02761790       1
Ni     3.42197608    0.02066387    0.00160936       2
Ni    -0.07605394    3.59930141   -0.01138660       3
Co    -3.60182044    0.02133131   -0.00161085       4
Ni    -0.09543772    0.06782034   -3.59070465       5
Co    -0.07530621    0.08335404    3.50105364       6
Ni    -0.03531561   -1.68820861   -1.79513161       7
Co     0.01058047   -1.64459377    1.70438124       8
Cr     1.67477921    0.08113496   -1.80418089       9
Cr     1.71385280   -0.00298988    1.79151582      10
Cr    -1.80982063   -1.70891025   -0.04811156      11
Ni     1.69632108    1.84724171   -0.00437005      12
Ni    -1.81417346    1.79661020    0.00359530      13
Co    -1.79053021    0.09169441   -1.76198987      14
Cr    -1.83390372   -0.03098320    1.71480832      15
Cr    -0.05086630    1.87390382   -1.86613894      16
Cr    -0.04368951    1.80146212    1.81517789      17
Cr     0.00000000    0.00000000    0.00000000      18
          18
Lattice="  24.8920   0.0000   0.0000   0.0000  24.8920   0.0000   0.0000   0.0000  24.8920 " ConfE="      -5922.3800" DelE="          0.6350"
Co    -0.00425024   -3.41724300   -0.01219483       1
Ni     3.40935154    0.03800225   -0.00092588       2
Ni    -0.05792088    3.62918596   -0.00704408       3
Co    -3.54526758    0.02357911   -0.01545509       4
Ni    -0.13694403    0.06081621   -3.56342166       5
Co    -0.10053371    0.09389920    3.54742687       6
Ni    -0.02119772   -1.81875919   -1.89646176       7
Co    -0.09479035   -1.70740171    1.86373128       8
Cr     1.64263726    0.14187232   -1.90786025       9
Cr     1.74981036    0.05600520    1.96285196      10
Cr    -1.76184397   -1.80428867   -0.03193181      11
Ni     1.64016158    1.76737999   -0.00756117      12
Ni    -1.85073033    1.94900478    0.02820792      13
Co    -1.15243947    0.08398728   -1.12811368      14
Cr    -1.72299698   -0.03000269    1.55822972      15
Cr    -0.04944824    1.92867896   -1.85018981      16
Cr    -0.05338648    1.70823023    1.71410985      17
Cr     0.93277244   -0.86575499    0.06709378      18
          18
Lattice="  24.8920   0.0000   0.0000   0.0000  24.8920   0.0000   0.0000   0.0000  24.8920 " ConfE="      -5924.0382" DelE="         -1.0232"
Co    -0.05841360   -3.45742726   -0.04243948       1
Ni     3.46359288    0.06153844   -0.00460718       2
Ni    -0.08663667    3.59499744   -0.02120908       3
Co    -3.59200678    0.00857391   -0.01430727       4
Ni    -0.13928736    0.08622634   -3.56120503       5
Co    -0.08219577    0.08450601    3.52897669       6
Ni    -0.11270241   -1.64677850   -1.81077494       7
Co    -0.06001581   -1.65762867    1.75255753       8
Cr     1.68825699    0.11513932   -1.82405580       9
Cr     1.68598810    0.03256507    1.80191842      10
Cr    -1.78419747   -1.66183534   -0.03016187      11
Ni     1.69405927    1.83747706   -0.00929969      12
Ni    -1.83422585    1.76827671   -0.05657753      13
Co    -0.06856851    0.07745768   -0.05421145      14
Cr    -1.83058545   -0.01345338    1.74561800      15
Cr    -0.06907709    1.87587313   -1.86055533      16
Cr    -0.06750294    1.80403413    1.79592567      17
Cr     1.64647226   -1.70778336    0.00196198      18
