          18
Lattice="  24.8920   0.0000   0.0000   0.0000  24.8920   0.0000   0.0000   0.0000  24.8920 " ConfE="      -5940.9263" DelE="          0.0000"
Ni     0.01353554   -0.00537130    3.55192426       1
Cr     0.07484676    3.44530327   -0.03171772       2
Co     0.01958846   -0.05276170   -3.65934015       3
Co     0.02996231   -3.62756443   -0.01580923       4
Cr    -3.49069839   -0.02589144   -0.02157132       5
Cr     3.56872392   -0.04911045    0.00861364       6
Cr    -1.64516703    0.08427892    1.74323539       7
Cr     1.74228936    0.11485237    1.77396949       8
Cr    -1.70845741    1.73979500   -0.10623442       9
Co     1.79525959    1.70065572   -0.06134115      10
Cr    -0.03717404   -1.81223417    1.76792901      11
Cr     0.02455639    1.71714232   -1.90457026      12
Cr     0.00088905   -1.85096453   -1.83717072      13
Co    -1.74809902   -1.83461716   -0.03337701      14
Ni     1.77379150   -1.81478508   -0.00174551      15
Ni    -1.74968750   -0.07103513   -1.85933649      16
Cr     1.73078769   -0.07122475   -1.85348973      17
Co     0.00000000    0.00000000    0.00000000      18
          18
Lattice="  24.8920   0.0000   0.0000   0.0000  24.8920   0.0000   0.0000   0.0000  24.8920 " ConfE="      -5940.4348" DelE="          0.4914"
Ni     0.00540283    0.01244046    3.50865636       1
Cr     0.04856028    3.39963474   -0.07966079       2
Co     0.01604250   -0.05263775   -3.64388307       3
Co     0.03436217   -3.62156068   -0.00155676       4
Cr    -3.58017242   -0.13793473   -0.01110983       5
Cr     3.64791360   -0.05657505    0.01268799       6
Cr    -1.82768032    0.02733768    1.77143355       7
Cr     1.86320084    0.11484207    1.76906114       8
Cr    -1.99520212    1.73835202   -0.20728332       9
Co     1.97686483    1.75679622   -0.11886064      10
Cr    -0.05339837   -1.68133512    1.67743563      11
Cr    -0.00615852    1.65140026   -1.84362129      12
Cr    -0.00624376   -1.76140154   -1.72570552      13
Co    -1.74435944   -1.81092250   -0.02710514      14
Ni     1.78807755   -1.79047141    0.02589543      15
Ni    -1.79436285   -0.07621917   -1.84499348      16
Cr     1.68818000   -0.03612345   -1.74038455      17
Co    -0.03719944    0.77965082    0.57833993      18
          18
Lattice="  24.8920   0.0000   0.0000   0.0000  24.8920   0.0000   0.0000   0.0000  24.8920 " ConfE="      -5940.8641" DelE="          0.0622"
Ni     0.00481577   -0.05177849    3.56806753       1
Cr     0.07203091    3.50155662   -0.04499070       2
Co     0.02148509   -0.04752735   -3.64997498       3
Co     0.03623304   -3.64579467   -0.01665200       4
Cr    -3.53674606   -0.03000646   -0.03032468       5
Cr     3.61268193   -0.05997450   -0.00012358       6
Cr    -1.71115693   -0.08009598    1.68991751       7
Cr     1.78299682    0.01909588    1.73119851       8
Cr    -1.70193448    1.69829330   -0.07571726       9
Co     1.78029203    1.65052302   -0.06912910      10
Cr    -0.00041710   -1.76314622    1.70852818      11
Cr     0.01330111    1.66667572   -1.79379482      12
Cr     0.00703464   -1.83051692   -1.80690808      13
Co    -1.72799100   -1.82681630   -0.04365359      14
Ni     1.77441498   -1.81895405   -0.01880883      15
Ni    -1.73430576   -0.08013435   -1.82212034      16
Cr     1.69559687   -0.07661381   -1.79915612      17
Co     0.00200563    1.66227874    1.69032225      18
