          18
Lattice="  24.8920   0.0000   0.0000   0.0000  24.8920   0.0000   0.0000   0.0000  24.8920 " ConfE="      -5949.8350" DelE="          0.0000"
Co    -0.09907774   -0.09132801    3.49611885       1
Cr     3.30913405    0.00329612    0.02753731       2
Co    -0.15250762   -0.09053856   -3.56382221       3
Cr    -3.73746862   -0.11673116   -0.02365739       4
Co    -0.12433265   -3.58675284    0.02277943       5
Cr    -0.06974104    3.36293609   -0.01976897       6
Cr    -0.14048513   -1.78445629    1.75604635       7
Co    -0.07847376    1.63260473    1.78748941       8
Ni     1.62379946   -1.81547203    0.02401445       9
Co     1.63936461    1.66538921    0.00531577      10
Ni    -1.92071657   -0.08147089    1.73600857      11
Co     1.62772678   -0.08966483   -1.82660614      12
Co    -1.90000039   -0.08200862   -1.76227904      13
Cr    -1.85640739   -1.83618653   -0.04347772      14
Ni    -1.91416435    1.68373994   -0.01611977      15
Co    -0.16539247   -1.84323550   -1.74166119      16
Co    -0.12527348    1.68924781   -1.80609004      17
Cr     0.00000000    0.00000000    0.00000000      18
          18
Lattice="  24.8920   0.0000   0.0000   0.0000  24.8920   0.0000   0.0000   0.0000  24.8920 " ConfE="      -5949.0930" DelE="          0.7420"
Co    -0.08861062   -0.07550180    3.50039106       1
Cr     3.32375360   -0.03700779    0.00503130       2
Co    -0.13720118   -0.09388805   -3.54750771       3
Cr    -3.68196545   -0.12319312   -0.01552040       4
Co    -0.13934380   -3.66868320    0.01008311       5
Cr    -0.13965628    3.50801494   -0.04194183       6
Cr    -0.15988423   -1.93092879    1.78785390       7
Co    -0.17285280    1.81449099    1.79570960       8
Ni     1.63363598   -1.96867513   -0.01907404       9
Co     1.60275448    1.79384136   -0.03844495      10
Ni    -1.83336423   -0.07496842    1.72264413      11
Co     1.57765988   -0.10256751   -1.66639228      12
Co    -1.87914612   -0.09053220   -1.73802795      13
Cr    -1.74491632   -1.78380906   -0.03331792      14
Ni    -1.86517096    1.67309599   -0.01766992      15
Co    -0.17263163   -1.83966926   -1.69266642      16
Co    -0.12305382    1.66931407   -1.75155829      17
Cr     0.82050723   -0.03847885    1.00836439      18
          18
Lattice="  24.8920   0.0000   0.0000   0.0000  24.8920   0.0000   0.0000   0.0000  24.8920 " ConfE="      -5949.7371" DelE="          0.0979"
Co    -0.14878178   -0.08777026    3.57872901       1
Cr     3.35717860   -0.00207544   -0.00618500       2
Co    -0.15782909   -0.09999478   -3.58512992       3
Cr    -3.71781010   -0.12357351   -0.02786480       4
Co    -0.12938950   -3.63446076    0.01394865       5
Cr    -0.08645458    3.42457978   -0.03597590       6
Cr    -0.16281449   -1.80706502    1.73512175       7
Co    -0.12173348    1.64599286    1.76478459       8
Ni     1.56981055   -1.80783639    0.00043007       9
Co     1.57747105    1.65022376   -0.01298651      10
Ni    -1.87753107   -0.09078588    1.71294744      11
Co     1.58896090   -0.08778349   -1.76531073      12
Co    -1.88838084   -0.09382058   -1.75103026      13
Cr    -1.82914878   -1.81726574   -0.06877101      14
Ni    -1.88001686    1.66793345   -0.02921675      15
Co    -0.19767391   -1.84453805   -1.72372213      16
Co    -0.13329578    1.66441062   -1.78997352      17
Cr     1.54659002   -0.00225495    1.73184906      18
