          18
Lattice="  24.8920   0.0000   0.0000   0.0000  24.8920   0.0000   0.0000   0.0000  24.8920 " ConfE="      -5942.9102" DelE="          0.0000"
Co    -3.53369665    0.04204464   -0.08321006       1
Ni     0.03708461    0.05231577   -3.62642412       2
Cr    -0.01727627    0.09294083    3.42963789       3
Co    -0.00385502    3.65197510   -0.07253380       4
Cr     3.53387499    0.09886456   -0.11602262       5
Cr     0.04185350   -3.48603530   -0.03980897       6
Ni    -1.74178280    1.80000003   -0.05614550       7
Ni    -1.72624951    0.08508704   -1.87701845       8
Ni     0.03918617    1.87455184   -1.88603132       9
Co     0.00607613    1.75150368    1.73135437      10
Ni     0.01292425   -1.69964621   -1.85498094      11
Cr    -1.78324669   -1.65585987   -0.07033151      12
Cr     0.00328113   -1.65456036    1.68419409      13
Ni     1.77450407    1.85645391   -0.10321800      14
Ni     1.80277017   -1.70281578   -0.09168132      15
Co     1.83827162    0.07548354   -1.82719430      16
Cr     1.84531217    0.08849178    1.70348094      17
Co     0.00000000    0.00000000    0.00000000      18
          18
Lattice="  24.8920   0.0000   0.0000   0.0000  24.8920   0.0000   0.0000   0.0000  24.8920 " ConfE="      -5942.6804" DelE="          0.2298"
Co    -3.55273876    0.05003817   -0.07985783       1
Ni     0.03138856    0.05228926   -3.62306745       2
Cr    -0.02658916    0.06181242    3.34765094       3
Co     0.01165443    3.68935196   -0.09349719       4
Cr     3.56875606    0.09611892   -0.09969153       5
Cr     0.03788811   -3.50990631   -0.06062638       6
Ni    -1.74233822    1.83253460   -0.05867700       7
Ni    -1.71481100    0.08537416   -1.82784401       8
Ni     0.04093063    1.86445688   -1.85947004       9
Co     0.03248598    1.87195922    1.72279210      10
Ni    -0.00081281   -1.66645466   -1.80076366      11
Cr    -1.87086149   -1.76343974   -0.12937448      12
Cr     0.09339638   -1.92178007    1.80254881      13
Ni     1.76709604    1.83893850   -0.09033453      14
Ni     1.75306607   -1.66023678   -0.05809038      15
Co     1.83597654    0.07901642   -1.80581477      16
Cr     1.84184029    0.09543406    1.70126924      17
Co    -0.45595383   -0.16290418    0.57413503      18
          18
Lattice="  24.8920   0.0000   0.0000   0.0000  24.8920   0.0000   0.0000   0.0000  24.8920 " ConfE="      -5943.1635" DelE="         -0.2533"
Co    -3.57003478    0.05537698   -0.09708534       1
Ni     0.03662128    0.05377368   -3.64114240       2
Cr     0.01068947    0.06961358    3.51183609       3
Co     0.00680723    3.67099405   -0.08396924       4
Cr     3.56232121    0.10003155   -0.11402225       5
Cr     0.05597624   -3.51577236   -0.04096680       6
Ni    -1.71018351    1.81128159   -0.08413517       7
Ni    -1.69993923    0.09284647   -1.83593266       8
Ni     0.05456348    1.88674725   -1.90858704       9
Co     0.05938157    1.74795616    1.69011617      10
Ni     0.00978575   -1.66623273   -1.82327749      11
Cr    -1.76142166   -1.66594384   -0.08088056      12
Cr     0.00366685   -1.65394220    1.68366139      13
Ni     1.77065791    1.83802331   -0.11488220      14
Ni     1.74181121   -1.64040392   -0.07471887      15
Co     1.84941691    0.08799423   -1.82683801      16
Cr     1.76222224    0.10222039    1.68849927      17
Co    -1.70535191    0.04354324    1.67261182      18
