          18
Lattice="  24.8920   0.0000   0.0000   0.0000  24.8920   0.0000   0.0000   0.0000  24.8920 " ConfE="      -5936.5975" DelE="          0.0000"
Ni    -0.03694319   -3.43191266    0.05181639       1
Ni     3.57120196    0.06684523    0.00749188       2
Co     0.00072881    0.03296048    3.55887616       3
Co    -3.54978538    0.05409613    0.02107206       4
Co    -0.03352004    3.63283071    0.00617366       5
Cr     0.00941096   -0.01058736   -3.53726558       6
Ni    -1.76080447    0.02656793    1.80762771       7
Ni     1.73253346   -0.00262018    1.79564694       8
Cr    -1.82033348   -1.68864043    0.03159735       9
Cr     1.74740406   -1.69896787    0.00475303      10
Ni     1.76176292    1.82519930    0.02298693      11
Cr    -0.03655125   -1.74190532   -1.81246938      12
Cr    -1.74199162    1.78825454    0.05953506      13
Cr    -1.85336158   -0.01171437   -1.72640974      14
Cr    -0.02936386    1.87485662   -1.75200312      15
Cr    -0.00439307    1.86765061    1.82948377      16
Cr     1.85284167    0.03550057   -1.79206469      17
Co     0.00000000    0.00000000    0.00000000      18
          18
Lattice="  24.8920   0.0000   0.0000   0.0000  24.8920   0.0000   0.0000   0.0000  24.8920 " ConfE="      -5935.6600" DelE="          0.9376"
Ni    -0.04149743   -3.46439746    0.02262590       1
Ni     3.60959516    0.08878739   -0.00666553       2
Co     0.00217410    0.02679727    3.49671403       3
Co    -3.59357549    0.06102620    0.01751172       4
Co    -0.03930856    3.64182336    0.01498190       5
Cr    -0.00154520   -0.02820567   -3.56346375       6
Ni    -1.87696385    0.07582550    1.82626894       7
Ni     1.83832701    0.06822884    1.80084381       8
Cr    -1.96352525   -1.71241150   -0.00832898       9
Cr     1.87018499   -1.69573601   -0.03885672      10
Ni     1.73699380    1.79924339    0.03320569      11
Cr    -0.01251327   -1.67032684   -1.69940575      12
Cr    -1.71538922    1.73429920    0.08920579      13
Cr    -1.78114906    0.01109295   -1.67014607      14
Cr    -0.03773816    1.82264674   -1.69056328      15
Cr    -0.01252515    1.80505858    1.78860444      16
Cr     1.77937278    0.05009988   -1.74553204      17
Co    -0.02553406   -1.14807202    0.99281773      18
          18
Lattice="  24.8920   0.0000   0.0000   0.0000  24.8920   0.0000   0.0000   0.0000  24.8920 " ConfE="      -5936.1136" DelE="          0.4840"
Ni    -0.03535990   -3.48311381    0.01853003       1
Ni     3.59150130    0.07489224    0.00454198       2
Co     0.00751429    0.08700209    3.58901799       3
Co    -3.56515102    0.05439179    0.02228150       4
Co    -0.03413217    3.63117546    0.00059337       5
Cr     0.00687736   -0.01060930   -3.59800037       6
Ni    -1.77784066    0.07017889    1.80816528       7
Ni     1.75208166    0.06353299    1.78374783       8
Cr    -1.76674625   -1.63982235    0.03516859       9
Cr     1.71582327   -1.65796476    0.00372618      10
Ni     1.73537767    1.80135221    0.02296079      11
Cr    -0.01311441   -1.62840981   -1.72729011      12
Cr    -1.71152265    1.74863510    0.06404974      13
Cr    -1.84044924    0.02168871   -1.70769709      14
Cr    -0.02759352    1.75842411   -1.71075864      15
Cr    -0.00975710    1.84021748    1.81799111      16
Cr     1.83986281    0.05798243   -1.78200336      17
Co     0.00193335   -1.64757702    1.73183281      18
