          18
Lattice="  24.8920   0.0000   0.0000   0.0000  24.8920   0.0000   0.0000   0.0000  24.8920 " ConfE="      -5938.1236" DelE="          0.0000"
Ni     0.00065540   -3.48767618    0.01822837       1
Ni     0.00250222    3.59910867    0.07137030       2
Co     3.41247528    0.03210696    0.04664208       3
Co    -0.02289587    0.04716698    3.63081886       4
Cr    -0.04038944    0.01594153   -3.49730534       5
Co    -3.57151842    0.04012566    0.05184829       6
Ni     0.00342525   -1.75654427    1.74446946       7
Ni     1.71889666   -0.00300956    1.79961791       8
Cr     0.00474951   -1.74876089   -1.71318268       9
Co     1.64311128   -0.05548458   -1.68201082      10
Ni     0.02993855    1.81588663    1.83460195      11
Ni    -1.77596211    1.82107827    0.08027162      12
Co    -1.81602154   -1.72221155    0.00034980      13
Co    -1.80041353    0.03232670    1.80950480      14
Cr    -1.81497930    0.01118327   -1.72374596      15
Co    -0.05545714    1.79707959   -1.71258732      16
Cr     1.79011981    1.75346169    0.00029645      17
Cr     0.00000000    0.00000000    0.00000000      18
          18
Lattice="  24.8920   0.0000   0.0000   0.0000  24.8920   0.0000   0.0000   0.0000  24.8920 " ConfE="      -5937.2551" DelE="          0.8686"
Ni    -0.02743355   -3.50042847    0.05158948       1
Ni     0.00409518    3.60337464    0.06583322       2
Co     3.38249625    0.02948590    0.04205798       3
Co    -0.04322919    0.06098756    3.69578253       4
Cr    -0.05274898    0.04033880   -3.60085275       5
Co    -3.56316581    0.01816106    0.05347668       6
Ni    -0.04996893   -1.76574216    1.88161158       7
Ni     1.69861193    0.02058341    1.87486382       8
Cr    -0.06369646   -1.81116406   -1.86606886       9
Co     1.68717821    0.05760438   -1.85490449      10
Ni     0.03068472    1.78365820    1.81068860      11
Ni    -1.74731218    1.78403562    0.08559184      12
Co    -1.70077491   -1.65744430   -0.00495777      13
Co    -1.77248408    0.02228203    1.81101555      14
Cr    -1.68341692    0.00973574   -1.66309013      15
Co    -0.04435560    1.73426283   -1.68008757      16
Cr     1.76576429    1.70326533    0.00392321      17
Cr     0.96387717   -1.09089783   -0.09824609      18
          18
Lattice="  24.8920   0.0000   0.0000   0.0000  24.8920   0.0000   0.0000   0.0000  24.8920 " ConfE="      -5937.8484" DelE="          0.2752"
Ni    -0.03050673   -3.52925934    0.02702166       1
Ni     0.00947956    3.59261516    0.07101210       2
Co     3.47598091    0.02694002    0.04031305       3
Co    -0.02831339    0.05249710    3.66305392       4
Cr    -0.05449143    0.02655337   -3.56209556       5
Co    -3.59482251    0.03744193    0.05996089       6
Ni    -0.02631099   -1.73250165    1.75804392       7
Ni     1.69314610    0.01325594    1.79509632       8
Cr    -0.05693218   -1.69983565   -1.71769258       9
Co     1.62963047   -0.00483427   -1.68425470      10
Ni     0.02499247    1.79873831    1.82277970      11
Ni    -1.75428952    1.78339816    0.08694478      12
Co    -1.72960726   -1.65221490   -0.02501983      13
Co    -1.80669270    0.04124493    1.82559818      14
Cr    -1.79282017    0.03402048   -1.70952332      15
Co    -0.06726144    1.74810380   -1.69013690      16
Cr     1.76580470    1.65948978   -0.00611628      17
Cr     1.66833226   -1.66311589   -0.04361480      18
