          18
Lattice="  24.8920   0.0000   0.0000   0.0000  24.8920   0.0000   0.0000   0.0000  24.8920 " ConfE="      -5945.0675" DelE="          0.0000"
Ni     0.00712896   -0.15558113   -3.44054882       1
Cr    -0.00740031    3.27262359   -0.01542608       2
Co     0.04582705   -0.16343216    3.65012546       3
Ni    -0.03255805   -3.67522117    0.09829169       4
Co     3.51472276   -0.14525593    0.07831800       5
Co    -3.55686383   -0.12036405    0.07678655       6
Cr     1.77804371   -0.09694415   -1.73945343       7
Co    -1.72024191   -0.14859643   -1.64053124       8
Cr     1.75627678    1.63040480    0.07232912       9
Co    -1.71164006    1.61874854    0.04306000      10
Ni     0.02202980   -1.94387866   -1.68698278      11
Co    -0.00029572    1.59212253    1.89076791      12
Cr    -0.00197220   -1.83756062    1.87685067      13
Ni     1.74360679   -1.91692097    0.07482512      14
Cr    -1.80505540   -1.84275602    0.00236985      15
Cr     1.77415159   -0.14551858    1.84279090      16
Ni    -1.77252255   -0.14564489    1.85909622      17
Cr     0.00000000    0.00000000    0.00000000      18
          18
Lattice="  24.8920   0.0000   0.0000   0.0000  24.8920   0.0000   0.0000   0.0000  24.8920 " ConfE="      -5944.4369" DelE="          0.6307"
Ni     0.00663991   -0.17093681   -3.44630344       1
Cr    -0.00548380    3.36054694    0.02227982       2
Co     0.04497162   -0.14875611    3.65079621       3
Ni    -0.01823731   -3.68444770    0.08466989       4
Co     3.56585816   -0.16731694    0.10023884       5
Co    -3.62582744   -0.14082932    0.08688104       6
Cr     1.95124896   -0.20377193   -1.78313056       7
Co    -1.84558990   -0.19128990   -1.66042905       8
Cr     1.88704620    1.64513066    0.15601272       9
Co    -1.81646938    1.60079667    0.07351339      10
Ni     0.02631767   -1.87277675   -1.66561481      11
Co     0.02945369    1.54255559    1.74352492      12
Cr    -0.00213613   -1.81045437    1.84021412      13
Ni     1.73474758   -1.88547863    0.07237203      14
Cr    -1.72103928   -1.79102256    0.01600076      15
Cr     1.70687828   -0.13413117    1.76707248      16
Ni    -1.74954773   -0.14543399    1.82076896      17
Cr     0.03964947    0.89094722   -1.03239082      18
          18
Lattice="  24.8920   0.0000   0.0000   0.0000  24.8920   0.0000   0.0000   0.0000  24.8920 " ConfE="      -5945.0026" DelE="          0.0649"
Ni    -0.00192374   -0.18471211   -3.48754249       1
Cr     0.01086152    3.41118631    0.05903394       2
Co     0.04552913   -0.15738062    3.67002815       3
Ni    -0.02460422   -3.69868286    0.09493941       4
Co     3.54437719   -0.15095519    0.08425078       5
Co    -3.59133735   -0.14200303    0.08945225       6
Cr     1.75404425   -0.11737185   -1.68489165       7
Co    -1.71801815   -0.17669000   -1.61232947       8
Cr     1.67962225    1.57189624    0.08932178       9
Co    -1.72360863    1.59053984    0.07406018      10
Ni     0.01681618   -1.91639879   -1.66571428      11
Co     0.01409450    1.55272904    1.80238217      12
Cr    -0.01595608   -1.80928728    1.83129134      13
Ni     1.73399945   -1.91342166    0.07807644      14
Cr    -1.77167955   -1.86070588    0.02520363      15
Cr     1.72788453   -0.15356500    1.78697450      16
Ni    -1.75661727   -0.16107640    1.84303659      17
Cr    -0.10718812    1.56616229   -1.63054082      18
