          18
Lattice="  24.8920   0.0000   0.0000   0.0000  24.8920   0.0000   0.0000   0.0000  24.8920 " ConfE="      -5934.5982" DelE="          0.0000"
Ni    -0.00704483    3.53715863    0.01626219       1
Ni    -0.04944647   -0.03179738   -3.50128315       2
Ni    -0.03398313   -3.61765753    0.02061763       3
Co     3.54546403   -0.06060226    0.00580791       4
Cr    -0.04088076   -0.00273315    3.55478133       5
Co    -3.56881130   -0.07044162    0.03297314       6
Ni     1.72057113    0.00733154    1.73891723       7
Ni     0.01463372    1.76070472   -1.73012076       8
Co    -0.07220752    1.72345783    1.80387097       9
Co     1.78485227   -0.02150790   -1.74949162      10
Ni    -0.03823740   -1.82421736   -1.74003830      11
Co    -1.84076942    1.73156628    0.03909963      12
Cr    -1.77915957    0.05168470    1.75267755      13
Cr     0.00361664   -1.81053566    1.77945081      14
Co    -1.84364199   -0.04252407   -1.76073791      15
Cr    -1.80159111   -1.80959950    0.04806684      16
Cr     1.75617211   -1.82090190    0.01854298      17
Ni     0.00000000    0.00000000    0.00000000      18
          18
Lattice="  24.8920   0.0000   0.0000   0.0000  24.8920   0.0000   0.0000   0.0000  24.8920 " ConfE="      -5933.6529" DelE="          0.9453"
Ni    -0.01247854    3.46226718    0.00652075       1
Ni    -0.08168891   -0.04338562   -3.58044877       2
Ni    -0.03052300   -3.60200215    0.01404428       3
Co     3.50768106   -0.07135149    0.00849281       4
Cr    -0.06988362   -0.04113299    3.70611905       5
Co    -3.58091566   -0.07456912    0.03119489       6
Ni     1.71204996   -0.07795772    1.94294743       7
Ni    -0.06583769    1.75330927   -1.86397895       8
Co    -0.13391973    1.69417563    1.93059170       9
Co     1.79997140   -0.08351994   -1.93459501      10
Ni    -0.03733520   -1.76908836   -1.74221925      11
Co    -1.77535331    1.65555572    0.03553149      12
Cr    -1.72543370    0.04283655    1.71745280      13
Cr    -0.01988989   -1.74865602    1.76206707      14
Co    -1.82591630   -0.04173703   -1.75543490      15
Cr    -1.72801571   -1.74104412    0.01278721      16
Cr     1.61729671   -1.64218390    0.01590037      17
Ni     1.14909932    1.08563104    0.01769516      18
          18
Lattice="  24.8920   0.0000   0.0000   0.0000  24.8920   0.0000   0.0000   0.0000  24.8920 " ConfE="      -5934.2254" DelE="          0.3728"
Ni    -0.03796318    3.56920365    0.00768593       1
Ni    -0.06824201   -0.03632657   -3.51348447       2
Ni    -0.03808408   -3.63614922    0.01593407       3
Co     3.57806033   -0.06714178    0.01095256       4
Cr    -0.05220936   -0.01466063    3.60646051       5
Co    -3.60188489   -0.07452598    0.03150454       6
Ni     1.67334561   -0.02131550    1.73069685       7
Ni    -0.04348281    1.72712246   -1.72866255       8
Co    -0.09052194    1.69549827    1.78923797       9
Co     1.74866815   -0.05585171   -1.73312905      10
Ni    -0.05832183   -1.79946670   -1.72063251      11
Co    -1.80087749    1.67220757    0.04394264      12
Cr    -1.74038161    0.05228028    1.70323956      13
Cr    -0.02158721   -1.79442859    1.75411690      14
Co    -1.84714832   -0.05496797   -1.74081007      15
Cr    -1.75430224   -1.76875864    0.03565419      16
Cr     1.65477124   -1.73065398   -0.00293457      17
Ni     1.71260283    1.73769081   -0.00674942      18
