          18
Lattice="  24.8920   0.0000   0.0000   0.0000  24.8920   0.0000   0.0000   0.0000  24.8920 " ConfE="      -5923.8161" DelE="          0.0000"
Ni     0.07336134    3.40681210   -0.05433844       1
Ni     0.07183458   -0.08565396   -3.59285129       2
Ni     0.05533821   -0.05574957    3.50949296       3
Cr     3.63753089   -0.06204705   -0.06635735       4
Cr     0.10198281   -3.63864530   -0.00174221       5
Co    -3.45830391   -0.07873993   -0.04739893       6
Ni     0.07064820    1.68523341   -1.80639466       7
Ni     1.84152039   -1.82638026   -0.03414459       8
Co     0.05324260    1.63129081    1.64992884       9
Ni    -1.72789373   -0.10969411   -1.82909312      10
Co     1.82674524   -0.03947473   -1.72765992      11
Co     1.85040726    0.00475671    1.65394766      12
Cr    -1.77418426    1.65865483   -0.07707039      13
Co    -1.70404191   -1.86703449   -0.04623279      14
Co     0.04256614   -1.85288351   -1.76589874      15
Cr     0.01618262   -1.76945795    1.68841482      16
Co    -1.71266765   -0.05862368    1.69471233      17
Cr     0.00000000    0.00000000    0.00000000      18
          18
Lattice="  24.8920   0.0000   0.0000   0.0000  24.8920   0.0000   0.0000   0.0000  24.8920 " ConfE="      -5923.0320" DelE="          0.7841"
Ni     0.07580106    3.36510690   -0.05198052       1
Ni     0.06371338   -0.09117987   -3.62196738       2
Ni     0.03765700   -0.07714697    3.54642265       3
Cr     3.64659061   -0.08420893   -0.05911412       4
Cr     0.11247503   -3.60530016    0.00733201       5
Co    -3.47820630   -0.08207137   -0.05032116       6
Ni     0.02933322    1.71050249   -1.89513664       7
Ni     1.83606319   -1.76389947   -0.03031425       8
Co     0.03014450    1.68515946    1.80778875       9
Ni    -1.68927454   -0.09384722   -1.78929696      10
Co     1.82809254   -0.06737876   -1.82788704      11
Co     1.85367402   -0.12689307    1.85050755      12
Cr    -1.71536221    1.61753879   -0.05482208      13
Co    -1.67513693   -1.83550952   -0.04560139      14
Co     0.04759946   -1.83064960   -1.74829682      15
Cr    -0.03603065   -1.68122719    1.57808608      16
Co    -1.64869151   -0.02323348    1.63660059      17
Cr     0.92798691    0.77938926    0.02605361      18
          18
Lattice="  24.8920   0.0000   0.0000   0.0000  24.8920   0.0000   0.0000   0.0000  24.8920 " ConfE="      -5923.5760" DelE="          0.2400"
Ni     0.05860225    3.45138174   -0.05789329       1
Ni     0.06481328   -0.09500884   -3.61293100       2
Ni     0.04869664   -0.06181305    3.51974781       3
Cr     3.68848585   -0.10171408   -0.06276217       4
Cr     0.10291369   -3.63125143   -0.00325533       5
Co    -3.48780513   -0.08903445   -0.05064395       6
Ni     0.04424943    1.64979547   -1.79057970       7
Ni     1.82321121   -1.79355397   -0.03416827       8
Co     0.06270256    1.62871315    1.62733545       9
Ni    -1.71578890   -0.11540353   -1.79438549      10
Co     1.82242344   -0.04969687   -1.74645310      11
Co     1.81423113   -0.05457791    1.68846412      12
Cr    -1.65949961    1.59075061   -0.01581304      13
Co    -1.67333125   -1.85191651   -0.03816576      14
Co     0.03088841   -1.85649929   -1.76088370      15
Cr    -0.01683850   -1.75261678    1.63315645      16
Co    -1.66367479   -0.05272596    1.64175694      17
Cr     1.80299392    1.58813981   -0.02526850      18
