          18
Lattice="  24.8920   0.0000   0.0000   0.0000  24.8920   0.0000   0.0000   0.0000  24.8920 " ConfE="      -5930.2382" DelE="          0.0000"
Co     0.02134123   -0.01437647    3.48055161       1
Ni    -3.54113324   -0.03223874   -0.00695631       2
Ni     3.56025852   -0.01863302   -0.03671396       3
Co    -0.03795563    3.52071875    0.00342846       4
Cr    -0.01044618    0.01317197   -3.65875445       5
Cr     0.02101823   -3.57191704   -0.00924435       6
Ni    -1.77826629    1.75728746    0.00241977       7
Ni     1.77003871    1.74126678    0.01030852       8
Co    -1.73929102    0.00921786    1.77964468       9
Cr     1.73613210   -0.02387489    1.76185024      10
Ni    -1.76813296   -0.01867894   -1.81619304      11
Ni    -0.00174884    1.73320431   -1.82844110      12
Cr    -1.74249995   -1.77962153    0.05901648      13
Co     1.76683936   -1.77134552   -0.08116765      14
Co     0.00195458   -1.84225815    1.71170450      15
Cr     1.76736071   -0.02461759   -1.83379854      16
Cr    -0.01665933   -1.78930172   -1.79187352      17
Ni     0.00000000    0.00000000    0.00000000      18
          18
Lattice="  24.8920   0.0000   0.0000   0.0000  24.8920   0.0000   0.0000   0.0000  24.8920 " ConfE="      -5929.6523" DelE="          0.5859"
Co    -0.01154475   -0.01027925    3.46984666       1
Ni    -3.61497466   -0.03063750   -0.04343679       2
Ni     3.62171788   -0.02749882   -0.06351180       3
Co    -0.03826600    3.49041246    0.01087716       4
Cr    -0.01316172    0.02821703   -3.65766470       5
Cr     0.02264030   -3.57941366    0.01240104       6
Ni    -1.94008008    1.80269243   -0.06923703       7
Ni     1.90533500    1.76892180   -0.06195722       8
Co    -1.96806378   -0.12618079    1.77605021       9
Cr     1.89512608   -0.06703199    1.76831457      10
Ni    -1.77025973   -0.01074709   -1.78897808      11
Ni    -0.00671347    1.69398116   -1.74351545      12
Cr    -1.69256903   -1.70682653    0.05559701      13
Co     1.71824274   -1.68270596   -0.09845496      14
Co    -0.00707922   -1.75261769    1.66128861      15
Cr     1.74016746   -0.01554462   -1.79032285      16
Cr    -0.00848264   -1.70843701   -1.72507160      17
Ni    -0.03071945    0.86555724    0.93464380      18
          18
Lattice="  24.8920   0.0000   0.0000   0.0000  24.8920   0.0000   0.0000   0.0000  24.8920 " ConfE="      -5930.2637" DelE="         -0.0254"
Co     0.00028037   -0.04959073    3.53930863       1
Ni    -3.56341815   -0.02994044   -0.01583739       2
Ni     3.58291554   -0.02471253   -0.04770201       3
Co    -0.02833632    3.54991173   -0.03177756       4
Cr    -0.01145246    0.01379160   -3.68639580       5
Cr     0.02391670   -3.59538954   -0.00442065       6
Ni    -1.77847400    1.73933535   -0.02384392       7
Ni     1.77783633    1.71056480   -0.02600220       8
Co    -1.75681382   -0.04793022    1.72734768       9
Cr     1.73035438   -0.06222861    1.71294016      10
Ni    -1.73900905   -0.03047081   -1.79041322      11
Ni     0.00636224    1.68855943   -1.79079440      12
Cr    -1.68688010   -1.72501613    0.06234411      13
Co     1.70908924   -1.69813725   -0.11204911      14
Co     0.00762100   -1.75194291    1.65725461      15
Cr     1.73893144   -0.03703408   -1.81565185      16
Cr    -0.01236069   -1.75428155   -1.75791942      17
Ni     0.01182424    1.70285641    1.70917478      18
