          18
Lattice="  24.8920   0.0000   0.0000   0.0000  24.8920   0.0000   0.0000   0.0000  24.8920 " ConfE="      -5923.8117" DelE="          0.0000"
Ni    -0.00666195    3.50850209   -0.00015413       1
Ni    -3.53832303    0.00579341   -0.03586664       2
Ni     3.57407086    0.00227649   -0.01067026       3
Co     0.04956458    0.02690383    3.48031862       4
Cr     0.00961897   -3.55461978   -0.01559060       5
Co     0.01139831   -0.02769712   -3.57599689       6
Ni    -1.74901950    1.74132051   -0.01461530       7
Ni     0.02783852   -1.76491926   -1.79310195       8
Cr     1.70071060    1.75508266    0.10828147       9
Ni     1.79726226   -1.76263592   -0.01652150      10
Co    -1.71320932    0.01037530    1.77536057      11
Co     1.76529695    0.03760601    1.74262108      12
Co     0.02033535    1.73816029   -1.82608790      13
Cr    -0.02947821   -1.80315297    1.77440760      14
Cr    -1.76476150   -0.05274518   -1.81850274      15
Cr     1.75572982    0.08570692   -1.81549735      16
Cr    -1.77805798   -1.77877185   -0.02946800      17
Ni     0.00000000    0.00000000    0.00000000      18
          18
Lattice="  24.8920   0.0000   0.0000   0.0000  24.8920   0.0000   0.0000   0.0000  24.8920 " ConfE="      -5923.0298" DelE="          0.7819"
Ni     0.00156442    3.44254568    0.00340197       1
Ni    -3.60000622   -0.00036231   -0.04352633       2
Ni     3.63812832   -0.01576818   -0.02746060       3
Co     0.05871101    0.03143879    3.43926923       4
Cr     0.01153685   -3.56029027    0.01454979       5
Co     0.00886463   -0.03050132   -3.59570746       6
Ni    -1.90784967    1.77816660   -0.07055404       7
Ni     0.02246871   -1.70801509   -1.73332220       8
Cr     1.93553922    1.78449454   -0.03135188       9
Ni     1.80263487   -1.73722697   -0.01537600      10
Co    -1.86402653   -0.02488230    1.79439722      11
Co     1.96087558   -0.05702993    1.79868375      12
Co     0.02395628    1.68183704   -1.76844106      13
Cr    -0.01621010   -1.69765873    1.71744468      14
Cr    -1.71433516   -0.01078989   -1.76133466      15
Cr     1.72140759    0.08519068   -1.77711873      16
Cr    -1.74182786   -1.69746525   -0.00309325      17
Ni     0.04925111    0.79334283    0.73960144      18
          18
Lattice="  24.8920   0.0000   0.0000   0.0000  24.8920   0.0000   0.0000   0.0000  24.8920 " ConfE="      -5923.7738" DelE="          0.0379"
Ni    -0.00471700    3.53743014   -0.03981514       1
Ni    -3.55740243    0.00424423   -0.04385806       2
Ni     3.60304387   -0.00885872   -0.01226840       3
Co     0.05230036   -0.00397052    3.53270029       4
Cr     0.01241358   -3.57269588   -0.00683546       5
Co     0.00767443   -0.03491392   -3.60171900       6
Ni    -1.74143836    1.70784215   -0.04855664       7
Ni     0.02267169   -1.72230001   -1.75094278       8
Cr     1.73142771    1.68865948   -0.01897665       9
Ni     1.76887458   -1.73480408   -0.01968995      10
Co    -1.67962390   -0.05199423    1.69984220      11
Co     1.75968594    0.00349403    1.70485038      12
Co     0.03506376    1.67669539   -1.77543608      13
Cr    -0.02674682   -1.73886294    1.74350745      14
Cr    -1.73084753   -0.05064613   -1.79118892      15
Cr     1.72401632    0.06876838   -1.79683634      16
Cr    -1.73553927   -1.73317796   -0.02482549      17
Ni     0.02539018    1.75521596    1.72009392      18
