          18
Lattice="  24.8920   0.0000   0.0000   0.0000  24.8920   0.0000   0.0000   0.0000  24.8920 " ConfE="      -5922.4656" DelE="          0.0000"
Ni     0.08898154   -0.01094738   -3.54540180       1
Cr    -3.33844159   -0.15349700   -0.09133052       2
Cr     0.00413215    3.53027057   -0.12035000       3
Co     0.08424487   -3.57104316    0.01505290       4
Cr     3.65469705    0.00917836    0.01038610       5
Co     0.14709121    0.00196077    3.56311480       6
Ni    -1.71941119   -0.02971672    1.78556469       7
Ni     0.02295891    1.76083444    1.72669637       8
Co    -1.72336936   -0.04637011   -1.75511714       9
Co     0.07430600    1.76621403   -1.72781453      10
Ni     0.06311456   -1.79515088   -1.77432140      11
Cr     1.83962028   -0.04362209   -1.70084220      12
Co    -1.70382744   -1.85357131    0.02484060      13
Cr     1.83133170    1.81015701   -0.01928051      14
Cr     1.77666447   -1.88721634    0.05091971      15
Co     0.11119530   -1.79828103    1.80678632      16
Cr     1.86695875   -0.03114033    1.70486820      17
Ni     0.00000000    0.00000000    0.00000000      18
          18
Lattice="  24.8920   0.0000   0.0000   0.0000  24.8920   0.0000   0.0000   0.0000  24.8920 " ConfE="      -5921.8940" DelE="          0.5715"
Ni     0.10039752   -0.01741387   -3.62610081       1
Cr    -3.29321020   -0.12862706   -0.06511587       2
Cr    -0.01605493    3.43542741   -0.08908175       3
Co     0.09222473   -3.55597072    0.01975670       4
Cr     3.66075201   -0.00542243    0.01586074       5
Co     0.14867093   -0.01886542    3.64585753       6
Ni    -1.73251672   -0.06473712    1.93833701       7
Ni     0.09530891    1.76003920    1.90320496       8
Co    -1.73794235   -0.11861793   -1.96554164       9
Co     0.11666447    1.77808203   -1.90534622      10
Ni     0.06826507   -1.78296669   -1.79488800      11
Cr     1.76939325   -0.02148634   -1.73779205      12
Co    -1.65076146   -1.76407662    0.01232963      13
Cr     1.75032937    1.67203919   -0.00715422      14
Cr     1.68528629   -1.67723356    0.05080419      15
Co     0.11081139   -1.75729351    1.80390774      16
Cr     1.84195335   -0.04034754    1.78534645      17
Ni    -0.68058724    0.67391161   -0.01948821      18
          18
Lattice="  24.8920   0.0000   0.0000   0.0000  24.8920   0.0000   0.0000   0.0000  24.8920 " ConfE="      -5922.6169" DelE="         -0.1513"
Ni     0.10758725   -0.02193106   -3.54871132       1
Cr    -3.37373562   -0.22981845   -0.10672542       2
Cr     0.04132605    3.62129104   -0.09949966       3
Co     0.07438191   -3.59536273    0.01414859       4
Cr     3.70059281    0.00203723   -0.01411395       5
Co     0.16580766   -0.00087515    3.57438295       6
Ni    -1.68302423   -0.04599937    1.76469432       7
Ni     0.05712884    1.73103036    1.71861929       8
Co    -1.68329622   -0.06505822   -1.75704825       9
Co     0.11109884    1.72674819   -1.72166746      10
Ni     0.07332153   -1.78399949   -1.74512079      11
Cr     1.71723054   -0.00805978   -1.50804359      12
Co    -1.66748299   -1.79969682    0.01554204      13
Cr     1.79048279    1.84721603   -0.00079876      14
Cr     1.74288050   -1.90725960    0.06720601      15
Co     0.12761135   -1.77018621    1.77257809      16
Cr     1.82781705   -0.03503744    1.58886442      17
Ni    -1.68698839    1.70182951   -0.02323870      18
