          18
Lattice="  24.8920   0.0000   0.0000   0.0000  24.8920   0.0000   0.0000   0.0000  24.8920 " ConfE="      -5948.3310" DelE="          0.0000"
Ni    -3.46455888    0.04753594   -0.01016313       1
Ni    -0.00410008   -0.00738655    3.55090624       2
Ni     3.57266861   -0.02746952    0.02100248       3
Co    -0.00200703    3.47111102   -0.00581084       4
Cr    -0.10770341   -0.03084860   -3.46285305       5
Cr     0.01301101   -3.53826374    0.00895631       6
Co    -1.72681252    0.03393049   -1.72893238       7
Cr    -0.08316944    1.76483100   -1.63078183       8
Cr    -1.71152327   -0.01106188    1.71085052       9
Ni     1.78932330    0.00995090   -1.76215577      10
Ni     1.81548620   -1.80562553    0.03533194      11
Co    -0.04038968    1.75406704    1.71641174      12
Cr    -1.72237417   -1.80525539    0.01808087      13
Co     0.01141434   -1.78496949   -1.74700251      14
Co     0.00923795   -1.79090348    1.78732887      15
Cr     1.77638277    1.75598320   -0.00336960      16
Cr     1.71858420   -0.01606015    1.75029992      17
Co     0.00000000    0.00000000    0.00000000      18
          18
Lattice="  24.8920   0.0000   0.0000   0.0000  24.8920   0.0000   0.0000   0.0000  24.8920 " ConfE="      -5947.6377" DelE="          0.6933"
Ni    -3.45766657    0.01304524   -0.01224811       1
Ni     0.00783600   -0.01871100    3.62362110       2
Ni     3.53459674   -0.02248507    0.03078779       3
Co     0.01002411    3.48301484    0.00709115       4
Cr    -0.09330318   -0.04818352   -3.54335902       5
Cr     0.00172774   -3.56026862    0.00309535       6
Co    -1.76249715   -0.05973462   -1.87841632       7
Cr    -0.00040322    1.77165163   -1.79891221       8
Cr    -1.68021909   -0.08920633    1.82724870       9
Ni     1.72630031    0.01383081   -1.73825603      10
Ni     1.77556445   -1.78406699    0.04559123      11
Co     0.04464773    1.83144235    1.90896072      12
Cr    -1.63653184   -1.70970954    0.00806396      13
Co    -0.01317383   -1.75169757   -1.70116323      14
Co     0.00271777   -1.75582036    1.78351344      15
Cr     1.63553167    1.71003055    0.01296992      16
Cr     1.52676007    0.04026168    1.65908203      17
Co    -1.15895033    1.16805539    0.02678041      18
          18
Lattice="  24.8920   0.0000   0.0000   0.0000  24.8920   0.0000   0.0000   0.0000  24.8920 " ConfE="      -5948.0359" DelE="          0.2951"
Ni    -3.50557921    0.01678313   -0.00924974       1
Ni    -0.00107744   -0.01513346    3.58648205       2
Ni     3.56668074   -0.02886481    0.02842650       3
Co     0.04007858    3.55948750    0.00989495       4
Cr    -0.10228304   -0.05292629   -3.51612013       5
Cr     0.01516709   -3.56948167   -0.00066106       6
Co    -1.68601516   -0.01004024   -1.70645826       7
Cr    -0.04599466    1.73535066   -1.65225797       8
Cr    -1.65041284   -0.02960819    1.68399551       9
Ni     1.74086009    0.01046272   -1.72672798      10
Ni     1.78743438   -1.78702303    0.04414418      11
Co     0.01877079    1.73356673    1.72511400      12
Cr    -1.66374407   -1.74454402    0.00732462      13
Co     0.00026826   -1.76614113   -1.70126781      14
Co     0.00447767   -1.75275712    1.76756905      15
Cr     1.70910099    1.72356210    0.00249943      16
Cr     1.60497783    0.00989790    1.67513616      17
Co    -1.67278793    1.74958407   -0.01524116      18
