          18
Lattice="  24.8920   0.0000   0.0000   0.0000  24.8920   0.0000   0.0000   0.0000  24.8920 " ConfE="      -5926.0638" DelE="          0.0000"
Ni    -3.52906700    0.05004172   -0.04703909       1
Co    -0.02142138    0.04499076    3.52391910       2
Co    -0.02446561   -3.48806569   -0.04047408       3
Ni     0.03151842    0.00691758   -3.63512423       4
Co     0.02657298    3.57935771   -0.06820457       5
Co     3.55966901    0.00856459   -0.07319239       6
Ni    -1.74776057    0.02333519    1.73414686       7
Co    -1.77381937   -1.76656932   -0.03862330       8
Ni     0.01925436    1.80342951    1.75581597       9
Co     1.77777700    0.03500431    1.70841329      10
Co     1.79423447   -1.76217924   -0.01766283      11
Ni     0.02557749    1.77102929   -1.81241114      12
Co     0.03730287   -1.75328412   -1.83921694      13
Co    -1.75335583    0.02075133   -1.84260448      14
Co    -1.76000877    1.85079796   -0.06741326      15
Cr     1.75572521   -0.08701491   -1.72601337      16
Co     1.81933027    1.79678878   -0.06281745      17
Ni     0.00000000    0.00000000    0.00000000      18
          18
Lattice="  24.8920   0.0000   0.0000   0.0000  24.8920   0.0000   0.0000   0.0000  24.8920 " ConfE="      -5925.5731" DelE="          0.4907"
Ni    -3.58656353    0.06041149   -0.05040533       1
Co    -0.01110993    0.03877580    3.49311859       2
Co    -0.01298551   -3.46728954   -0.04457149       3
Ni     0.03701066    0.00028226   -3.62573877       4
Co     0.03181473    3.58167137   -0.06990344       5
Co     3.62255585    0.02267161   -0.07132620       6
Ni    -1.88431175    0.10163380    1.75376390       7
Co    -1.93992931   -1.78977470   -0.14768857       8
Ni     0.02323369    1.71691421    1.68825202       9
Co     1.92356909    0.08842728    1.73065651      10
Co     1.98355886   -1.82997504   -0.06892775      11
Ni     0.03406862    1.72779577   -1.77349354      12
Co     0.05417353   -1.71363032   -1.77358929      13
Co    -1.74146458    0.01972457   -1.80125477      14
Co    -1.75790685    1.82133194   -0.07159823      15
Cr     1.68020490   -0.07171286   -1.60549484      16
Co     1.81163050    1.74242470   -0.06876691      17
Ni     0.01140855   -0.92985123    0.86066800      18
          18
Lattice="  24.8920   0.0000   0.0000   0.0000  24.8920   0.0000   0.0000   0.0000  24.8920 " ConfE="      -5926.0155" DelE="          0.0483"
Ni    -3.54862452    0.05161140   -0.05242870       1
Co    -0.01857486    0.07096326    3.54760500       2
Co    -0.01760103   -3.52650249   -0.07036927       3
Ni     0.03308875    0.00449049   -3.64823525       4
Co     0.03354239    3.59218820   -0.07216481       5
Co     3.59701771    0.01060414   -0.06909185       6
Ni    -1.74035761    0.06653454    1.67537859       7
Co    -1.76256727   -1.72453934   -0.08388636       8
Ni     0.02486009    1.76834393    1.70846855       9
Co     1.78169258    0.05842920    1.68223037      10
Co     1.79445783   -1.73240720   -0.03409508      11
Ni     0.04459833    1.72233870   -1.77663997      12
Co     0.04399512   -1.71361244   -1.79509094      13
Co    -1.73820955    0.03352759   -1.82883729      14
Co    -1.74954023    1.84647117   -0.08781421      15
Cr     1.69398116   -0.08353336   -1.65750625      16
Co     1.80941451    1.75981928   -0.06503084      17
Ni     0.00333312   -1.66973442    1.71262378      18
