          18
Lattice="  24.8920   0.0000   0.0000   0.0000  24.8920   0.0000   0.0000   0.0000  24.8920 " ConfE="      -5947.9804" DelE="          0.0000"
Co     0.01016807   -3.46140120   -0.02821600       1
Co     3.45030803    0.01240629   -0.01308162       2
Co    -0.05672641    3.58927471   -0.01012319       3
Ni    -3.60258452    0.02247532   -0.03006219       4
Cr    -0.03638313    0.03923467   -3.64589053       5
Co    -0.03265484   -0.01951266    3.47469887       6
Ni    -0.02312498   -1.72873857   -1.80994130       7
Cr    -0.00557266   -1.74851722    1.73243546       8
Cr     1.75958444   -0.02637642   -1.76253121       9
Co     1.71615260   -0.07190193    1.67888663      10
Cr    -1.81203072   -1.75672463   -0.00736736      11
Co     1.71268271    1.82548673   -0.02265850      12
Cr    -1.78880773    1.81129159   -0.03402341      13
Ni    -1.82593345    0.01445968   -1.82250363      14
Co    -1.83757515    0.04404931    1.72833536      15
Co    -0.02328650    1.79088458   -1.81250749      16
Cr     0.04198152    1.75560625    1.74342000      17
Cr     0.00000000    0.00000000    0.00000000      18
          18
Lattice="  24.8920   0.0000   0.0000   0.0000  24.8920   0.0000   0.0000   0.0000  24.8920 " ConfE="      -5947.3935" DelE="          0.5869"
Co    -0.01247997   -3.36504883   -0.03890763       1
Co     3.38655980   -0.01332692    0.00585030       2
Co    -0.04982701    3.56774999   -0.00436041       3
Ni    -3.60926043    0.02297874   -0.03783541       4
Cr    -0.04355346    0.04735298   -3.73099504       5
Co    -0.03874833   -0.01302070    3.54581714       6
Ni    -0.06683129   -1.73405233   -1.95935694       7
Cr    -0.10042344   -1.72799391    1.92568871       8
Cr     1.77786394   -0.01768697   -1.91718299       9
Co     1.78227982    0.03216230    1.91091362      10
Cr    -1.75620638   -1.64201124   -0.03708214      11
Co     1.67400558    1.74520766   -0.02196630      12
Cr    -1.54401050    1.54055369   -0.05356071      13
Ni    -1.82459696   -0.01071232   -1.87490406      14
Co    -1.78899516    0.01976194    1.72496883      15
Co     0.00224060    1.71800766   -1.81554377      16
Cr     0.06769909    1.66515815    1.70681289      17
Cr     0.67189709   -0.66237857    0.05257672      18
          18
Lattice="  24.8920   0.0000   0.0000   0.0000  24.8920   0.0000   0.0000   0.0000  24.8920 " ConfE="      -5947.9302" DelE="          0.0503"
Co    -0.04294754   -3.52853779   -0.03900206       1
Co     3.49974739    0.03718430   -0.00009225       2
Co    -0.05540005    3.60344464   -0.00870817       3
Ni    -3.61562478    0.02418402   -0.03509377       4
Cr    -0.03696747    0.04915240   -3.66856046       5
Co    -0.03540776   -0.01491430    3.51698248       6
Ni    -0.05848867   -1.70501583   -1.84178484       7
Cr    -0.04122282   -1.68740604    1.75024454       8
Cr     1.72837736    0.04351070   -1.80028537       9
Co     1.67294399   -0.00963606    1.69781716      10
Cr    -1.66548208   -1.61330561    0.00922048      11
Co     1.66448480    1.74914950   -0.03945734      12
Cr    -1.67329886    1.67991095   -0.03640534      13
Ni    -1.82681388    0.02219340   -1.83608471      14
Co    -1.81440313    0.05681005    1.71294614      15
Co    -0.02762815    1.76857999   -1.79958857      16
Cr     0.05126899    1.69152724    1.67532751      17
Cr     1.61941660   -1.68880121   -0.04910278      18
