          18
Lattice="  24.8920   0.0000   0.0000   0.0000  24.8920   0.0000   0.0000   0.0000  24.8920 " ConfE="      -5937.7512" DelE="          0.0000"
Ni    -0.09737624   -3.47912812   -0.08321982       1
Ni    -0.10231884   -0.02047947    3.40650614       2
Ni    -0.07878033    3.60004518   -0.09886196       3
Ni    -0.09833624    0.04780764   -3.66734404       4
Cr    -3.66471355    0.08627636   -0.07181370       5
Cr     3.42375633    0.05359017   -0.05982516       6
Co    -1.85916841   -1.69201943   -0.06348619       7
Co     1.64782759   -1.71129804   -0.04250125       8
Ni    -1.85392539    0.03052066    1.66366282       9
Co     1.66901673   -0.01311460    1.68213534      10
Ni    -0.09379909   -1.74324685   -1.87583693      11
Co    -0.06325314    1.79954861    1.63987186      12
Cr    -0.03192244    1.83749298   -1.86811200      13
Ni    -1.82359298    0.04686824   -1.85723686      14
Ni     1.66318291    0.03125004   -1.85935975      15
Ni    -1.82227807    1.79978260   -0.10702083      16
Cr     1.69790401    1.78553955   -0.06804372      17
Cr     0.00000000    0.00000000    0.00000000      18
          18
Lattice="  24.8920   0.0000   0.0000   0.0000  24.8920   0.0000   0.0000   0.0000  24.8920 " ConfE="      -5937.2834" DelE="          0.4678"
Ni    -0.08961767   -3.41834938   -0.04533906       1
Ni    -0.12392390   -0.01003332    3.36102410       2
Ni    -0.08496064    3.60009620   -0.08697635       3
Ni    -0.09631224    0.04093639   -3.65133422       4
Cr    -3.73907736    0.11371894   -0.09956945       5
Cr     3.54696417    0.08598987   -0.09451549       6
Co    -1.96648756   -1.71318111   -0.07993107       7
Co     1.78220065   -1.73791480   -0.05842590       8
Ni    -1.98663175    0.08407763    1.68772652       9
Co     1.76772578    0.02686678    1.69357187      10
Ni    -0.09300351   -1.72211881   -1.80322484      11
Co    -0.05103107    1.73502258    1.59166995      12
Cr    -0.03488592    1.76860740   -1.77510287      13
Ni    -1.82523431    0.03451856   -1.81932030      14
Ni     1.63544659    0.02057566   -1.76752784      15
Ni    -1.82162599    1.76509017   -0.09382665      16
Cr     1.64574769    1.71421546   -0.02972776      17
Cr    -0.08833210   -0.77413535    0.70301014      18
          18
Lattice="  24.8920   0.0000   0.0000   0.0000  24.8920   0.0000   0.0000   0.0000  24.8920 " ConfE="      -5938.2177" DelE="         -0.4665"
Ni    -0.09167894   -3.53371978   -0.11893964       1
Ni    -0.11132378    0.03197843    3.44807180       2
Ni    -0.07913520    3.61993409   -0.09834598       3
Ni    -0.09851737    0.05046775   -3.67062191       4
Cr    -3.67412971    0.09620350   -0.08916565       5
Cr     3.47637742    0.07558295   -0.08145587       6
Co    -1.86297820   -1.69315044   -0.07630102       7
Co     1.65575034   -1.70734379   -0.05176655       8
Ni    -1.85172190    0.05436556    1.64441589       9
Co     1.66628784    0.01541958    1.64304660      10
Ni    -0.09289500   -1.72815423   -1.83117111      11
Co    -0.03763465    1.75500397    1.57982558      12
Cr    -0.02160629    1.83476691   -1.84089248      13
Ni    -1.81871177    0.05381555   -1.85590864      14
Ni     1.63296598    0.04830288   -1.80618014      15
Ni    -1.80894760    1.79108665   -0.12068921      16
Cr     1.67258382    1.77171851   -0.05681051      17
Cr    -0.08631162   -1.69459253    1.59739058      18
