          18
Lattice="  24.8920   0.0000   0.0000   0.0000  24.8920   0.0000   0.0000   0.0000  24.8920 " ConfE="      -5944.2463" DelE="          0.0000"
Cr    -0.01029261   -3.47116954   -0.04777523       1
Co     3.42743581    0.03464127   -0.00497025       2
Cr    -0.07976272    3.67514319   -0.01650571       3
Ni    -3.62863677    0.09494715   -0.01517001       4
Ni    -0.06405460    0.08646647   -3.58041505       5
Co    -0.04838902    0.05980634    3.50357876       6
Co    -0.09275650   -1.69108343   -1.69817309       7
Ni    -0.05335861   -1.72585148    1.72055519       8
Ni     1.67549413    0.06163106   -1.78732403       9
Co     1.66545245    0.04827628    1.68831891      10
Cr    -1.87175210   -1.76549771    0.01460145      11
Co     1.66538952    1.89896807    0.00287922      12
Cr    -1.85402418    1.92075974    0.00546584      13
Co    -1.80531026    0.08465360   -1.71997866      14
Co    -1.82321440    0.04915990    1.69824364      15
Ni    -0.06515048    1.84878463   -1.78129297      16
Ni    -0.09859572    1.83156670    1.72727763      17
Cr     0.00000000    0.00000000    0.00000000      18
          18
Lattice="  24.8920   0.0000   0.0000   0.0000  24.8920   0.0000   0.0000   0.0000  24.8920 " ConfE="      -5939.9167" DelE="          4.3296"
Cr    -0.08316965   -3.62285431   -0.13893538       1
Co     3.05658063   -0.07693488   -0.73436682       2
Cr    -0.09578175    3.76876635   -0.04165419       3
Ni    -3.64682250    0.08637432   -0.02628249       4
Ni    -0.05726225    0.05563966   -3.47260967       5
Co    -0.08353224    0.03670603    3.36675650       6
Co    -0.24021528   -1.96859965   -1.73448245       7
Ni    -0.24240875   -1.97942429    1.70533013       8
Ni     0.72727443   -0.05866514   -0.96905240       9
Co     3.16628262    0.55184525    1.38839456      10
Cr    -1.92907235   -1.93012871   -0.07016311      11
Co     1.72618058    2.00338258    0.03186627      12
Cr    -1.87422638    2.01317474   -0.02994112      13
Co    -1.78383164    0.05856082   -1.64732199      14
Co    -1.42029036    0.03311261    1.03211623      15
Ni    -0.09808818    1.96771948   -1.76317857      16
Ni    -0.05842720    1.90517638    1.67753403      17
Cr     1.19045742   -0.27605008    1.26883386      18
          18
Lattice="  24.8920   0.0000   0.0000   0.0000  24.8920   0.0000   0.0000   0.0000  24.8920 " ConfE="      -5944.1925" DelE="          0.0538"
Cr    -0.03333334   -3.47716736   -0.05831280       1
Co     1.68797261    0.04966252   -1.77282319       2
Cr    -0.07663243    3.66000397   -0.01990095       3
Ni    -3.62479371    0.09577894   -0.01889462       4
Ni    -0.06437705    0.07743125   -3.57524601       5
Co    -0.02252024    0.06570107    3.49068853       6
Co    -0.10205829   -1.71696103   -1.73303499       7
Ni    -0.02582217   -1.69826331    1.69176125       8
Ni    -0.06559344    0.06359134   -0.03862181       9
Co     3.36307806    0.02398858    0.01371937      10
Cr    -1.87348506   -1.76424185   -0.00364405      11
Co     1.66789859    1.90599122    0.00120424      12
Cr    -1.85991728    1.92311264    0.00182521      13
Co    -1.85007488    0.07438935   -1.76813304      14
Co    -1.82994258    0.05475197    1.71084593      15
Ni    -0.07071778    1.84708558   -1.80060385      16
Ni    -0.09353366    1.84591116    1.73663158      17
Cr     1.71150560    0.07787994    1.66341154      18
