          18
Lattice="  24.8920   0.0000   0.0000   0.0000  24.8920   0.0000   0.0000   0.0000  24.8920 " ConfE="      -5948.8823" DelE="          0.0000"
Ni     0.01000822   -3.37388278   -0.01006176       1
Ni    -0.01172722    0.08031206    3.43115534       2
Co    -0.01473476    3.72825388   -0.08010641       3
Ni     0.00004812    0.14432336   -3.62483324       4
Co    -3.55353109    0.10754112   -0.06314077       5
Ni     3.56015004    0.12884609   -0.06784229       6
Cr    -1.83449915   -1.61387920   -0.04223391       7
Cr     1.82705625   -1.63213845   -0.00874388       8
Ni    -1.77957809    0.10447337    1.70439995       9
Cr     1.77841324    0.03713923    1.70737537      10
Ni     0.02346567   -1.66627750   -1.82685243      11
Ni    -0.00907882    1.89771800    1.66846571      12
Cr    -0.05635448    1.85971707   -1.80469212      13
Co    -1.76728843    0.10237532   -1.82987764      14
Ni     1.77488385    0.11378310   -1.83224231      15
Co    -1.77481901    1.88880109   -0.11629769      16
Ni     1.75686722    1.87512538   -0.06687999      17
Co     0.00000000    0.00000000    0.00000000      18
          18
Lattice="  24.8920   0.0000   0.0000   0.0000  24.8920   0.0000   0.0000   0.0000  24.8920 " ConfE="      -5948.4136" DelE="          0.4688"
Ni     0.00930781   -3.39444288   -0.01877218       1
Ni    -0.01618482    0.07317142    3.42155117       2
Co    -0.01914395    3.72577371   -0.07286889       3
Ni    -0.00504430    0.14310497   -3.62487742       4
Co    -3.59075303    0.12636355   -0.06905580       5
Ni     3.58868378    0.13685517   -0.06948335       6
Cr    -1.93101307   -1.61189727   -0.05784256       7
Cr     1.98267893   -1.69719529   -0.08141369       8
Ni    -1.85655996    0.15627725    1.70744841       9
Cr     1.88613714    0.08940663    1.75747268      10
Ni     0.01215121   -1.62264533   -1.74712525      11
Ni    -0.01131444    1.84548936    1.64234270      12
Cr    -0.07980722    1.83460779   -1.78105300      13
Co    -1.74974912    0.10506646   -1.78344430      14
Ni     1.75315895    0.10775073   -1.79700956      15
Co    -1.76681881    1.88097499   -0.11977229      16
Ni     1.73943017    1.83751556   -0.05947460      17
Co     0.09096670   -1.00604860    0.92263487      18
          18
Lattice="  24.8920   0.0000   0.0000   0.0000  24.8920   0.0000   0.0000   0.0000  24.8920 " ConfE="      -5948.7526" DelE="          0.1298"
Ni     0.01727057   -3.43819635   -0.05528770       1
Ni    -0.00398007    0.12032366    3.47259579       2
Co    -0.01952892    3.73938793   -0.08232924       3
Ni    -0.00353116    0.14688449   -3.63825579       4
Co    -3.56871121    0.11285298   -0.06767201       5
Ni     3.57373389    0.13038509   -0.07224775       6
Cr    -1.82278167   -1.60197218   -0.04948067       7
Cr     1.82391774   -1.62183662   -0.01892824       8
Ni    -1.76825924    0.13468362    1.66629597       9
Cr     1.78098416    0.05924145    1.68764505      10
Ni     0.01626232   -1.62881879   -1.76574459      11
Ni    -0.00875662    1.86344241    1.63680396      12
Cr    -0.08409455    1.85863655   -1.80540107      13
Co    -1.74264616    0.11087574   -1.79737058      14
Ni     1.74551275    0.11513781   -1.80761481      15
Co    -1.76415589    1.89152545   -0.13527470      16
Ni     1.73334716    1.85309098   -0.07547251      17
Co     0.05902384   -1.55023912    1.59219092      18
