          18
Lattice="  24.8920   0.0000   0.0000   0.0000  24.8920   0.0000   0.0000   0.0000  24.8920 " ConfE="      -5942.9820" DelE="          0.0000"
Ni    -0.04028850   -3.40658719   -0.01918192       1
Cr    -0.06653656   -0.04161403   -3.50544716       2
Ni    -0.02913426    3.61203699    0.02401770       3
Ni    -0.01547705    0.10759527    3.59303007       4
Co    -3.56743535    0.08708672    0.01936844       5
Ni     3.52819414    0.08025371    0.00216454       6
Ni    -1.78777303   -1.67114877   -0.00933704       7
Cr     1.72408607   -1.71684868   -0.04584609       8
Co    -1.80129590    0.04228328   -1.79697089       9
Ni     1.72356761    0.05743908   -1.77221333      10
Cr    -0.04258098   -1.62808711    1.79159788      11
Ni    -0.03814006    1.84496707   -1.76809221      12
Co    -0.01031739    1.84473971    1.81403999      13
Co    -1.79380874    0.09892888    1.85696187      14
Ni     1.77084453    0.07521572    1.78135145      15
Ni    -1.77781134    1.83090421    0.02518297      16
Ni     1.77598828    1.85531397    0.01608348      17
Co     0.00000000    0.00000000    0.00000000      18
          18
Lattice="  24.8920   0.0000   0.0000   0.0000  24.8920   0.0000   0.0000   0.0000  24.8920 " ConfE="      -5942.4417" DelE="          0.5403"
Ni    -0.05357827   -3.36517378   -0.03053181       1
Cr    -0.03928748   -0.05997715   -3.44912182       2
Ni    -0.02723959    3.60698991    0.02284745       3
Ni    -0.01644955    0.10083472    3.59696520       4
Co    -3.62453100    0.09569669    0.04615233       5
Ni     3.57662699    0.08754336    0.00880114       6
Ni    -1.92859206   -1.69584599    0.04062902       7
Cr     1.86614914   -1.77546767   -0.06113695       8
Co    -1.94164285    0.07863930   -1.78609666       9
Ni     1.93098431    0.13738656   -1.83585743      10
Cr    -0.07682841   -1.57456275    1.72499904      11
Ni    -0.02158055    1.78545554   -1.74174606      12
Co    -0.00466577    1.82141074    1.80252011      13
Co    -1.79626582    0.08316031    1.85672707      14
Ni     1.73548085    0.04384186    1.71478090      15
Ni    -1.75726363    1.79185846    0.03629865      16
Ni     1.77971375    1.83579003    0.01430700      17
Co     0.04286770   -0.69134561   -0.76193238      18
          18
Lattice="  24.8920   0.0000   0.0000   0.0000  24.8920   0.0000   0.0000   0.0000  24.8920 " ConfE="      -5943.1664" DelE="         -0.1844"
Ni    -0.04050696   -3.45905348    0.01889565       1
Cr    -0.05501643    0.00445660   -3.57203285       2
Ni    -0.03266378    3.62555740    0.02527538       3
Ni    -0.01316400    0.10956808    3.60851486       4
Co    -3.58235644    0.09337081    0.03261579       5
Ni     3.54522042    0.09610797    0.00608090       6
Ni    -1.76117632   -1.62474524    0.03133418       7
Cr     1.71780822   -1.68695020   -0.01295623       8
Co    -1.83391910    0.08757656   -1.77184565       9
Ni     1.72452297    0.08810405   -1.74629956      10
Cr    -0.02757114   -1.58688848    1.73538126      11
Ni    -0.04527826    1.81430575   -1.74778434      12
Co    -0.00818946    1.84927765    1.82103508      13
Co    -1.77519534    0.10538441    1.86522137      14
Ni     1.74284570    0.08271863    1.75368664      15
Ni    -1.75550442    1.81765803    0.04293503      16
Ni     1.75977668    1.85180069    0.02442905      17
Co    -0.03501301   -1.64590402   -1.72334581      18
