          18
Lattice="  24.8920   0.0000   0.0000   0.0000  24.8920   0.0000   0.0000   0.0000  24.8920 " ConfE="      -5924.2404" DelE="          0.0000"
Ni    -0.01999764    0.01662536    3.49975731       1
Ni     0.00821931    3.49982180    0.03895033       2
Ni     0.01632810   -0.03525455   -3.58687088       3
Ni     0.05021615   -3.57379363   -0.01646751       4
Co    -3.55773853    0.01625903   -0.03075986       5
Ni     3.54455611    0.01360276   -0.03355349       6
Co    -1.81254351   -0.00792073    1.77899434       7
Ni     1.74192446    0.03226063    1.73114963       8
Ni    -1.73357154    1.75439538   -0.01216462       9
Ni     1.75375145    1.75963557    0.00492976      10
Ni     0.02904560   -1.81361889    1.76399242      11
Ni     0.01152760    1.74490284   -1.81828311      12
Ni     0.01462204   -1.75193889   -1.80919657      13
Ni    -1.75671112   -1.75667127   -0.02683798      14
Co     1.80901506   -1.80696783   -0.02246881      15
Co    -1.78841564    0.01635803   -1.84449397      16
Cr     1.80816649   -0.04157448   -1.78731708      17
Ni     0.00000000    0.00000000    0.00000000      18
          18
Lattice="  24.8920   0.0000   0.0000   0.0000  24.8920   0.0000   0.0000   0.0000  24.8920 " ConfE="      -5923.5549" DelE="          0.6856"
Ni    -0.01817504    0.03006403    3.44250001       1
Ni    -0.00869505    3.45071403    0.04151849       2
Ni     0.02423712   -0.03371141   -3.58737864       3
Ni     0.05881410   -3.55681398   -0.00933395       4
Co    -3.60773013    0.02829999   -0.04393219       5
Ni     3.60642093    0.00695932   -0.04374910       6
Co    -2.02699149   -0.07699163    1.87057790       7
Ni     1.90057571   -0.00992094    1.74914793       8
Ni    -1.89010064    1.81065409   -0.08584760       9
Ni     1.85467691    1.75878621   -0.03829610      10
Ni     0.03856504   -1.75618405    1.74428249      11
Ni     0.01490780    1.69570749   -1.75144627      12
Ni     0.01824856   -1.70547283   -1.77398262      13
Ni    -1.72098335   -1.67470778   -0.01195492      14
Co     1.80539978   -1.76181475   -0.02940762      15
Co    -1.79442427    0.03824576   -1.84310126      16
Cr     1.79840066   -0.05573020   -1.74833710      17
Ni    -0.07573361    0.65726580    0.75622506      18
          18
Lattice="  24.8920   0.0000   0.0000   0.0000  24.8920   0.0000   0.0000   0.0000  24.8920 " ConfE="      -5924.3232" DelE="         -0.0828"
Ni    -0.00928629   -0.00371210    3.54272474       1
Ni     0.00908645    3.52768100   -0.01658397       2
Ni     0.02455015   -0.04217259   -3.61102418       3
Ni     0.05256260   -3.57454671   -0.02052873       4
Co    -3.58051297    0.01997994   -0.03698851       5
Ni     3.56839672    0.00957307   -0.03974163       6
Co    -1.82078591   -0.03023157    1.77248490       7
Ni     1.74822008   -0.00129941    1.69871088       8
Ni    -1.72848384    1.71503240   -0.04959905       9
Ni     1.75470555    1.70982042   -0.04263714      10
Ni     0.02718602   -1.77605184    1.74283854      11
Ni     0.02333000    1.70288193   -1.79497614      12
Ni     0.01971396   -1.72082188   -1.79439962      13
Ni    -1.71661690   -1.70744838   -0.03853625      14
Co     1.79516981   -1.78124472   -0.04356952      15
Co    -1.77827955    0.02110456   -1.85622542      16
Cr     1.80924189   -0.06915766   -1.79444388      17
Ni    -0.00069672    1.72549151    1.73391685      18
