          23
Lattice="  24.8920   0.0000   0.0000   0.0000  24.8920   0.0000   0.0000   0.0000  24.8920 " ConfE="      -5940.5802" DelE="          0.0000"
Ni    -0.02667762   -2.58926616   -2.51804558       1
Ni     1.79615286    0.87376679    2.64453971       2
Ni    -1.83676022    0.89059860    2.65997647       3
Ni     1.76035815   -2.64845978   -0.81914514       4
Ni     1.78998514   -0.87190834   -2.54838262       5
Cr     0.00477336    2.51943490    2.43655002       6
Cr    -1.80511665   -2.60190689   -0.81204178       7
Co    -3.64331144   -0.89374292   -0.86481420       8
Cr    -1.79002898   -0.84597755   -2.51728450       9
Co     3.60763044    0.93147287    0.91253950      10
Ni     0.00469038    0.87470601   -2.49813149      11
Cr    -3.66698385    0.86805643    0.90683481      12
Co     1.81116223    2.68638665    0.87754156      13
Co    -1.86835934    2.65751087    0.91681726      14
Cr     3.63889196   -0.92817850   -0.79793216      15
Cr    -0.02013009    2.56139380   -0.61810064      16
Cr    -0.01962996   -2.61491815    0.88331909      17
Cr     0.00878420   -0.76837485    2.52733741      18
Ni     0.00000000    0.00000000    0.00000000      19
Ni    -1.93630198   -0.91521439    0.93232949      20
Co    -1.98630564    0.94803797   -0.85470784      21
Cr     1.96407990    0.90215250   -0.83289557      22
Co     1.93674734   -0.94514059    0.96086491      23
          23
Lattice="  24.8920   0.0000   0.0000   0.0000  24.8920   0.0000   0.0000   0.0000  24.8920 " ConfE="      -5940.4728" DelE="          0.1074"
Ni    -0.02016951   -2.61643206   -2.54298992       1
Ni     1.81611746    0.86948386    2.66978638       2
Ni    -1.85472169    0.89185509    2.67800396       3
Ni     1.74017027   -2.63955019   -0.81231521       4
Ni     1.77370984   -0.87335507   -2.52171925       5
Cr    -0.00163780    2.48370025    2.38482484       6
Cr    -1.78525380   -2.59806437   -0.81952413       7
Co    -3.64228198   -0.89640860   -0.86507762       8
Cr    -1.77249760   -0.84845965   -2.51351811       9
Co     3.59832342    0.91957816    0.91657935      10
Ni     0.01181568    0.86472927   -2.45700247      11
Cr    -3.65165567    0.85633504    0.89234717      12
Co     1.80454107    2.67269156    0.85657188      13
Co    -1.88937888    2.66085990    0.90777947      14
Cr     3.66903323   -0.95083388   -0.79887390      15
Cr    -0.05683319    2.68518973   -0.69432686      16
Cr    -0.01889947   -2.64497589    0.89636870      17
Cr     0.01403977   -0.77141114    2.56175084      18
Ni     0.02510685    0.40726420    0.23812935      19
Ni    -1.85969679   -0.90233311    0.89859802      20
Co    -1.98572844    0.93335375   -0.87215085      21
Cr     2.01346955    0.86791325   -0.84581917      22
Co     1.87202289   -0.93599638    0.93779836      23
          23
Lattice="  24.8920   0.0000   0.0000   0.0000  24.8920   0.0000   0.0000   0.0000  24.8920 " ConfE="      -5941.0804" DelE="         -0.5002"
Ni    -0.03357636   -2.62770001   -2.55493515       1
Ni     1.74196596    0.87456896    2.68431016       2
Ni    -1.77586955    0.88498186    2.70374426       3
Ni     1.71986740   -2.65877962   -0.83202878       4
Ni     1.74242581   -0.87395631   -2.54450183       5
Cr     0.00786097    2.73112490    2.62855798       6
Cr    -1.79345535   -2.62005337   -0.83356654       7
Co    -3.59232033   -0.87237339   -0.84706511       8
Cr    -1.77981162   -0.86710666   -2.55978789       9
Co     3.51374942    0.91272651    0.90168072      10
Ni     0.00380761    0.88621283   -2.57388023      11
Cr    -3.53779025    0.86147930    0.88579241      12
Co     1.77866338    2.70818970    0.89712189      13
Co    -1.84132743    2.67315244    0.93130527      14
Cr     3.56832774   -0.91096618   -0.77185553      15
Cr    -0.01781483    2.69809815   -0.77559820      16
Cr    -0.03637068   -2.71978587    0.88811612      17
Cr     0.03716753   -0.95297056    2.69359301      18
Ni    -0.01999594    0.85894494    0.90492943      19
Ni    -1.74320596   -0.91396873    0.89828376      20
Co    -1.76466232    0.86268371   -0.85432982      21
Cr     1.76171555    0.86179819   -0.80736859      22
Co     1.70494722   -0.90777391    0.88098211      23
