          18
Lattice="  24.8920   0.0000   0.0000   0.0000  24.8920   0.0000   0.0000   0.0000  24.8920 " ConfE="      -5938.3763" DelE="          0.0000"
Co     0.06264753   -0.04959506   -3.59296563       1
Cr     0.08191009    3.58392964   -0.06134995       2
Cr     0.00241451   -0.03500457    3.54908424       3
Cr    -0.02707376   -3.60241003    0.00688166       4
Ni    -3.52710884    0.02233132    0.00763717       5
Ni     3.51866543   -0.00683249    0.01050462       6
Ni    -1.71510510    0.03650536   -1.79905035       7
Ni     1.72429862    0.00807876   -1.75685834       8
Ni    -1.71149326    1.79381617   -0.02846112       9
Ni     1.74119783    1.77156958   -0.00390456      10
Co     0.00670263   -1.85765601   -1.80896649      11
Ni     0.00153359    1.78317295    1.79528819      12
Ni    -0.00252593   -1.77988788    1.76297841      13
Ni    -1.76273142   -1.77491604    0.00063257      14
Cr     1.74021195   -1.83175268   -0.02786235      15
Co    -1.80363075    0.02167816    1.79794245      16
Co     1.77731902   -0.00436148    1.81494936      17
Ni     0.00000000    0.00000000    0.00000000      18
          18
Lattice="  24.8920   0.0000   0.0000   0.0000  24.8920   0.0000   0.0000   0.0000  24.8920 " ConfE="      -5937.7412" DelE="          0.6351"
Co     0.06249624   -0.03826324   -3.56959917       1
Cr     0.07194039    3.48357824   -0.09299540       2
Cr     0.00112809   -0.02160262    3.55372250       3
Cr    -0.03633873   -3.60718763   -0.00595894       4
Ni    -3.58847078    0.00204874    0.01497435       5
Ni     3.57505007   -0.02873091    0.01149033       6
Ni    -1.84975013   -0.00807377   -1.83435480       7
Ni     1.87118717   -0.03745598   -1.79851255       8
Ni    -1.91355611    1.83295462    0.03168905       9
Ni     1.94442066    1.81012181    0.06043312      10
Co     0.01279509   -1.80204164   -1.78197364      11
Ni    -0.00432509    1.75636547    1.72579045      12
Ni    -0.01047226   -1.72428324    1.70728298      13
Ni    -1.75641290   -1.73726427   -0.01413519      14
Cr     1.69561970   -1.77882311   -0.04174882      15
Co    -1.80748952    0.02758095    1.77020058      16
Co     1.76226563   -0.00001697    1.77298859      17
Ni     0.01714910    0.77439032   -0.67768593      18
          18
Lattice="  24.8920   0.0000   0.0000   0.0000  24.8920   0.0000   0.0000   0.0000  24.8920 " ConfE="      -5938.5383" DelE="         -0.1620"
Co     0.05917554   -0.05367892   -3.61040884       1
Cr     0.07485996    3.61644389   -0.00595896       2
Cr     0.00602525   -0.03831277    3.56251624       3
Cr    -0.03052608   -3.62585433    0.01151069       4
Ni    -3.54546880    0.01430713    0.01352242       5
Ni     3.53000246   -0.01523795    0.01553404       6
Ni    -1.72152688    0.00585334   -1.76868143       7
Ni     1.71360082   -0.01840786   -1.71525416       8
Ni    -1.72620935    1.76401665    0.00937133       9
Ni     1.73415238    1.74462991    0.02295528      10
Co     0.01436283   -1.83156010   -1.78438731      11
Ni    -0.00559212    1.75405939    1.77030951      12
Ni     0.00047139   -1.75324499    1.73101989      13
Ni    -1.72871133   -1.74515257    0.00229775      14
Cr     1.70141391   -1.82455893   -0.02982143      15
Co    -1.79089191    0.01495732    1.79196636      16
Co     1.75230787   -0.01434411    1.79643229      17
Ni    -0.00785557    1.78335483   -1.75273949      18
