          18
Lattice="  24.8920   0.0000   0.0000   0.0000  24.8920   0.0000   0.0000   0.0000  24.8920 " ConfE="      -5943.7783" DelE="          0.0000"
Cr    -0.05953843    3.42170677   -0.05453032       1
Ni     3.40814654   -0.03959447   -0.00417334       2
Co    -0.06882421   -3.63316151    0.00387657       3
Co    -3.63212453   -0.06701920    0.01088752       4
Co    -0.06311480   -0.07030619   -3.56801441       5
Co    -0.09047089   -0.09188429    3.49883760       6
Cr     0.02428760    1.64686426   -1.75068887       7
Ni    -0.02608304    1.72024353    1.74201468       8
Co     1.67560402    0.00377176   -1.78718337       9
Cr     1.63456472   -0.07802791    1.80576785      10
Cr    -1.85721755    1.68844812   -0.02684010      11
Ni     1.71048588   -1.85428533   -0.00790469      12
Cr    -1.83793686   -1.84784334   -0.01348006      13
Co    -1.82996500   -0.04097043   -1.72773375      14
Cr    -1.75787077   -0.12987016    1.73019143      15
Ni    -0.05772886   -1.82910723   -1.75767491      16
Co    -0.06179005   -1.86788381    1.75480781      17
Co     0.00000000    0.00000000    0.00000000      18
          18
Lattice="  24.8920   0.0000   0.0000   0.0000  24.8920   0.0000   0.0000   0.0000  24.8920 " ConfE="      -5943.2360" DelE="          0.5423"
Cr    -0.06024603    3.42427333   -0.02046110       1
Ni     3.39623868   -0.03354346   -0.00651835       2
Co    -0.06408963   -3.63054431   -0.00126479       3
Co    -3.62144563   -0.05355034    0.00205333       4
Co    -0.08025063   -0.09070036   -3.62882037       5
Co    -0.10303768   -0.10472973    3.55123616       6
Cr    -0.05065128    1.65367057   -1.85606652       7
Ni    -0.11901866    1.78026348    1.92437220       8
Co     1.69671139   -0.05883125   -1.94409024       9
Cr     1.57870243   -0.09557049    1.89009127      10
Cr    -1.72324902    1.61861848   -0.02932657      11
Ni     1.66081230   -1.76991808   -0.01297581      12
Cr    -1.82927254   -1.84237051   -0.03303583      13
Co    -1.79024847   -0.03696906   -1.70815123      14
Cr    -1.62224035   -0.16392019    1.62896040      15
Ni    -0.06163907   -1.78746383   -1.74174466      16
Co    -0.05380080   -1.85736554    1.74807050      17
Co     0.97378442    0.99852610    0.01094311      18
          18
Lattice="  24.8920   0.0000   0.0000   0.0000  24.8920   0.0000   0.0000   0.0000  24.8920 " ConfE="      -5943.5179" DelE="          0.2604"
Cr    -0.08944756    3.50238553   -0.05012970       1
Ni     3.45530489   -0.06345838   -0.01296401       2
Co    -0.06811587   -3.64691138    0.00517831       3
Co    -3.64264350   -0.06790122    0.00503077       4
Co    -0.06698484   -0.08138996   -3.58155059       5
Co    -0.09730048   -0.09419802    3.51318362       6
Cr     0.01094203    1.61950768   -1.73782584       7
Ni    -0.06474435    1.68987529    1.73317644       8
Co     1.65347262   -0.03901901   -1.78823806       9
Cr     1.59214672   -0.08629241    1.76367384      10
Cr    -1.79021541    1.66268731   -0.04100704      11
Ni     1.67719705   -1.80466356   -0.00675839      12
Cr    -1.84496893   -1.86436446   -0.02359211      13
Co    -1.78039070   -0.03740668   -1.66070347      14
Cr    -1.68236905   -0.17201259    1.64149654      15
Ni    -0.06818193   -1.81875014   -1.73163178      16
Co    -0.06214926   -1.85096735    1.73821011      17
Co     1.60148258    1.65476548   -0.06230743      18
