          18
Lattice="  24.8920   0.0000   0.0000   0.0000  24.8920   0.0000   0.0000   0.0000  24.8920 " ConfE="      -5923.0441" DelE="          0.0000"
Co    -3.48381369   -0.02369246   -0.09466499       1
Cr     0.01369802    0.00898451    3.43516683       2
Co     3.69282018   -0.01923183   -0.08767566       3
Ni     0.06881883   -0.07525159   -3.68914807       4
Co     0.05100336   -3.54276964   -0.06771103       5
Ni     0.03913493    3.48673911   -0.10252238       6
Co    -1.70841462   -1.74364014   -0.08969066       7
Cr    -1.77357406    1.65538834   -0.05194038       8
Ni     0.04686070   -1.76717774    1.69633075       9
Cr     0.01176316    1.71171182    1.67321484      10
Cr    -1.69061253   -0.02589905   -1.86298037      11
Ni     1.87306722   -0.01936726    1.71941307      12
Ni     1.82397174   -0.04793776   -1.85113575      13
Cr     0.04613853   -1.79625979   -1.76947258      14
Co     0.03407937    1.70440257   -1.86850118      15
Cr     1.85951709   -1.76226332   -0.05472672      16
Ni     1.83682816    1.71459926   -0.08114775      17
Co     0.00000000    0.00000000    0.00000000      18
          18
Lattice="  24.8920   0.0000   0.0000   0.0000  24.8920   0.0000   0.0000   0.0000  24.8920 " ConfE="      -5922.5847" DelE="          0.4594"
Co    -3.43348925   -0.02662797   -0.07607896       1
Cr    -0.02409284   -0.00982924    3.36896350       2
Co     3.69190846   -0.01853082   -0.08157058       3
Ni     0.05887202   -0.06912975   -3.68014932       4
Co     0.08037150   -3.60258748   -0.06954981       5
Ni     0.06202556    3.52031408   -0.11210287       6
Co    -1.70231332   -1.91193593   -0.11752419       7
Cr    -1.83111716    1.90568814   -0.10813443       8
Ni     0.09161392   -1.86652926    1.69042824       9
Cr     0.12753964    1.84476898    1.73059167      10
Cr    -1.64026327    0.02044228   -1.74209493      11
Ni     1.82644446   -0.02819330    1.69192432      12
Ni     1.80088905   -0.04518114   -1.82201388      13
Cr     0.04208811   -1.74452043   -1.69086744      14
Co     0.01534442    1.68452980   -1.82944008      15
Cr     1.83178121   -1.75417502   -0.05169512      16
Ni     1.80373369    1.69587285   -0.08011629      17
Co    -0.87778943    0.09854080    0.77605368      18
          18
Lattice="  24.8920   0.0000   0.0000   0.0000  24.8920   0.0000   0.0000   0.0000  24.8920 " ConfE="      -5923.0734" DelE="         -0.0293"
Co    -3.52519945   -0.02627274   -0.10898325       1
Cr     0.06134026   -0.00411735    3.49495269       2
Co     3.69582436   -0.01863073   -0.08957522       3
Ni     0.07056710   -0.07769658   -3.70277828       4
Co     0.05592086   -3.56676100   -0.07145456       5
Ni     0.05203898    3.51508154   -0.10906965       6
Co    -1.63862180   -1.70752674   -0.13151982       7
Cr    -1.70544206    1.67394591   -0.09124921       8
Ni     0.08906536   -1.76352499    1.66072604       9
Cr     0.04030627    1.71127350    1.65257630      10
Cr    -1.63977623   -0.02451592   -1.78666345      11
Ni     1.83213282   -0.02194611    1.69127234      12
Ni     1.81249236   -0.05675498   -1.84273280      13
Cr     0.07019064   -1.77555825   -1.74835572      14
Co     0.02517743    1.66753012   -1.83790828      15
Cr     1.85664299   -1.75853121   -0.06770511      16
Ni     1.79935547    1.68737236   -0.08587347      17
Co    -1.64291531    0.01671770    1.62688379      18
