          18
Lattice="  24.8920   0.0000   0.0000   0.0000  24.8920   0.0000   0.0000   0.0000  24.8920 " ConfE="      -5936.5375" DelE="          0.0000"
Ni    -0.02866734   -3.42449824    0.05856611       1
Cr    -0.09847138   -0.16595636   -3.26290179       2
Co     0.00558582    3.61802537    0.10374745       3
Ni     0.01453824    0.08328446    3.65217267       4
Ni    -3.54266813    0.07684460    0.10086603       5
Ni     3.56731295    0.02737800    0.08389810       6
Co    -1.73104453   -1.67897560    0.08613376       7
Ni     1.77935048   -1.70625439    0.06594270       8
Co    -1.74289555    0.02676099   -1.67253878       9
Co     1.78636226    0.00878170   -1.74572368      10
Cr     0.00703080   -1.67550443    1.85211383      11
Cr     0.03763823    1.82582678   -1.66702211      12
Co     0.01250811    1.81526243    1.82480325      13
Co    -1.74092716    0.10330482    1.86949106      14
Co     1.78684216    0.06977030    1.84622740      15
Ni    -1.78439079    1.83598591    0.10077383      16
Cr     1.78023279    1.80887300    0.11253229      17
Cr     0.00000000    0.00000000    0.00000000      18
          18
Lattice="  24.8920   0.0000   0.0000   0.0000  24.8920   0.0000   0.0000   0.0000  24.8920 " ConfE="      -5935.8040" DelE="          0.7335"
Ni    -0.02782893   -3.37597516    0.05458676       1
Cr    -0.09105808   -0.08300208   -3.39428533       2
Co     0.00654167    3.61339147    0.10041505       3
Ni     0.01621950    0.08109597    3.66458151       4
Ni    -3.57828218    0.07752802    0.11077383       5
Ni     3.60367778    0.02812436    0.09102348       6
Co    -1.83374688   -1.70705950    0.10573182       7
Ni     1.89474488   -1.73793131    0.12426583       8
Co    -1.86568563    0.05607861   -1.70951371       9
Co     1.91955342    0.01818865   -1.78131341      10
Cr     0.00338186   -1.64731750    1.83087023      11
Cr     0.02956297    1.73536951   -1.62148917      12
Co     0.01813171    1.77182342    1.78093683      13
Co    -1.69313554    0.05944797    1.83113158      14
Co     1.76110046    0.05649429    1.81021749      15
Ni    -1.76649154    1.78693538    0.08851893      16
Cr     1.70815636    1.70176796    0.09376600      17
Cr     0.00136812   -0.76208087   -0.80008034      18
          18
Lattice="  24.8920   0.0000   0.0000   0.0000  24.8920   0.0000   0.0000   0.0000  24.8920 " ConfE="      -5936.5458" DelE="         -0.0083"
Ni    -0.01657059   -3.48190900    0.11349679       1
Cr    -0.05131449   -0.01824532   -3.47232818       2
Co     0.00758297    3.63489665    0.10991918       3
Ni     0.01375952    0.09146265    3.66265122       4
Ni    -3.56656571    0.08403497    0.11713353       5
Ni     3.58714010    0.03323910    0.09220291       6
Co    -1.71537167   -1.66051430    0.12906071       7
Ni     1.76396726   -1.67526479    0.09064629       8
Co    -1.73535317    0.05465111   -1.65337825       9
Co     1.79516996    0.02971521   -1.71657581      10
Cr    -0.00685626   -1.61264280    1.78498394      11
Cr     0.03804810    1.62553011   -1.52251931      12
Co     0.01688199    1.80008977    1.80875952      13
Co    -1.73045518    0.11031044    1.88060527      14
Co     1.77078539    0.08777831    1.82802219      15
Ni    -1.77956017    1.82154972    0.12486013      16
Cr     1.76086756    1.79860237    0.14178089      17
Cr    -0.07859208   -1.60108016   -1.58849002      18
