          18
Lattice="  24.8920   0.0000   0.0000   0.0000  24.8920   0.0000   0.0000   0.0000  24.8920 " ConfE="      -5923.7766" DelE="          0.0000"
Co     0.00000715   -3.43912404    0.00470476       1
Ni     3.45010196    0.00801540    0.00389889       2
Co    -0.08819047    3.57156506   -0.00546076       3
Ni    -3.60085808    0.03271274    0.00138276       4
Co    -0.02549745    0.02982276   -3.56466686       5
Ni    -0.04276901    0.05274480    3.58273944       6
Co     0.03022043   -1.70099460   -1.75295778       7
Co    -0.02915562   -1.72447148    1.78198254       8
Cr     1.67736640   -0.05777973   -1.66746518       9
Co     1.70049494    0.04764438    1.77561278      10
Co    -1.83122642   -1.73607106   -0.01122555      11
Ni     1.71900576    1.83240533    0.02645326      12
Cr    -1.78684529    1.73063235   -0.00078945      13
Co    -1.77141633    0.01109806   -1.77189461      14
Cr    -1.73853653   -0.07046326    1.74285934      15
Cr    -0.02883463    1.75440894   -1.70373680      16
Ni    -0.07005152    1.80171571    1.77462859      17
Co     0.00000000    0.00000000    0.00000000      18
          18
Lattice="  24.8920   0.0000   0.0000   0.0000  24.8920   0.0000   0.0000   0.0000  24.8920 " ConfE="      -5923.0140" DelE="          0.7627"
Co     0.01049974   -3.39723646    0.00712491       1
Ni     3.45291014    0.00083000    0.00270341       2
Co    -0.07504250    3.55809913    0.00002146       3
Ni    -3.62082081    0.02709386    0.00290085       4
Co    -0.02714040    0.04266888   -3.61258760       5
Ni    -0.04996443    0.05215426    3.62877145       6
Co    -0.07803193   -1.75426887   -1.90952030       7
Co    -0.09706927   -1.75424152    1.94979043       8
Cr     1.71320608   -0.02225441   -1.81279552       9
Co     1.74750983    0.11262941    1.92279549      10
Co    -1.75085983   -1.67100364    0.01606960      11
Ni     1.68889982    1.74194338    0.01492791      12
Cr    -1.73359582    1.65035924   -0.01017369      13
Co    -1.71562405    0.03927495   -1.72981553      14
Cr    -1.71538874   -0.07791207    1.71660521      15
Cr    -0.01875057    1.69901159   -1.69123992      16
Ni    -0.07836820    1.73390893    1.74559674      17
Co     0.83457002   -0.86209301    0.02522009      18
          18
Lattice="  24.8920   0.0000   0.0000   0.0000  24.8920   0.0000   0.0000   0.0000  24.8920 " ConfE="      -5923.7118" DelE="          0.0648"
Co    -0.04938343   -3.48206595   -0.00494579       1
Ni     3.51192748    0.02886276    0.01038145       2
Co    -0.08373560    3.57605566   -0.00157630       3
Ni    -3.62636798    0.03211232    0.00102422       4
Co    -0.02996003    0.03064768   -3.58090685       5
Ni    -0.04555045    0.04946345    3.60042249       6
Co    -0.01784601   -1.67024871   -1.74892862       7
Co    -0.05127108   -1.68960418    1.77269329       8
Cr     1.65203275   -0.03003116   -1.67466570       9
Co     1.69071724    0.04711898    1.76837944      10
Co    -1.79593282   -1.69170971    0.00561374      11
Ni     1.68355636    1.76052277    0.01035339      12
Cr    -1.76890081    1.69062926   -0.00333945      13
Co    -1.71948564    0.05601808   -1.70470503      14
Cr    -1.72974221   -0.08067274    1.71473014      15
Cr    -0.04484034    1.73287097   -1.67917804      16
Ni    -0.08608438    1.74573695    1.73513958      17
Co     1.70298550   -1.70332053   -0.01433479      18
