          18
Lattice="  24.8920   0.0000   0.0000   0.0000  24.8920   0.0000   0.0000   0.0000  24.8920 " ConfE="      -5948.8822" DelE="          0.0000"
Co     0.01162793   -0.07818832   -3.43371559       1
Ni     0.01762310    3.61191655    0.02422775       2
Co     0.00652665   -3.49254241    0.04022896       3
Cr    -3.53615818    0.02898283    0.06074471       4
Co     3.57624963    0.04814815    0.04204163       5
Cr     0.04797117    0.05300769    3.55648559       6
Ni    -1.76701897    0.02443726   -1.72780911       7
Ni     0.00284937    1.81739209   -1.76296232       8
Ni    -1.76128182    1.83163666    0.04450022       9
Co    -1.82495691   -1.69965906    0.01718219      10
Cr     1.79027166   -0.04223579   -1.72321603      11
Ni    -0.01570917   -1.73721493    1.81194067      12
Co     1.77303699   -1.72297760   -0.00132903      13
Cr     1.79843565    1.77466929    0.01691540      14
Co     0.03043653    1.82652984    1.80204649      15
Co    -1.73411173    0.06300276    1.83615564      16
Cr     1.80552375   -0.00053083    1.80937082      17
Ni     0.00000000    0.00000000    0.00000000      18
          18
Lattice="  24.8920   0.0000   0.0000   0.0000  24.8920   0.0000   0.0000   0.0000  24.8920 " ConfE="      -5948.3512" DelE="          0.5310"
Co    -0.00955704   -0.05829436   -3.43657086       1
Ni     0.00681517    3.60093044    0.01833804       2
Co     0.01172256   -3.48132090    0.01053894       3
Cr    -3.60222785    0.04706033    0.08099352       4
Co     3.63925406    0.06769508    0.04938593       5
Cr     0.04114657    0.02772357    3.55209699       6
Ni    -1.93143852    0.10279794   -1.74107028       7
Ni    -0.00362640    1.73509571   -1.72131984       8
Ni    -1.76885777    1.81051039    0.03840124       9
Co    -1.94731403   -1.69684017    0.05045951      10
Cr     1.95627750    0.03411184   -1.72315548      11
Ni    -0.01735572   -1.70127178    1.70043424      12
Co     1.95027725   -1.77272553    0.09192420      13
Cr     1.72182190    1.68886223    0.02909132      14
Co     0.03197128    1.76601031    1.75333649      15
Co    -1.72196738    0.05531771    1.78886411      16
Cr     1.78169736   -0.02422074    1.75943208      17
Ni     0.02587811   -0.92201764   -0.97563799      18
          18
Lattice="  24.8920   0.0000   0.0000   0.0000  24.8920   0.0000   0.0000   0.0000  24.8920 " ConfE="      -5949.0101" DelE="         -0.1279"
Co     0.00101747    0.01083668   -3.49894326       1
Ni     0.01448097    3.63492025    0.02785226       2
Co     0.00971231   -3.53420448    0.06543668       3
Cr    -3.56498254    0.04087987    0.06889813       4
Co     3.61203900    0.06186831    0.05087501       5
Cr     0.05005624    0.04806483    3.56125130       6
Ni    -1.75394914    0.05813028   -1.68723549       7
Ni     0.01391700    1.78218662   -1.71235362       8
Ni    -1.74923375    1.81981768    0.05042088       9
Co    -1.81749267   -1.67556506    0.04218296      10
Cr     1.78433206    0.00275196   -1.65594279      11
Ni    -0.00569134   -1.71456838    1.76694196      12
Co     1.77602118   -1.68891795    0.03187806      13
Cr     1.75767271    1.75532553    0.04250867      14
Co     0.03926380    1.79830446    1.77206785      15
Co    -1.70173532    0.06420077    1.80000506      16
Cr     1.78010123    0.00444117    1.76277365      17
Ni    -0.01101009   -1.71525816   -1.69455036      18
