          18
Lattice="  24.8920   0.0000   0.0000   0.0000  24.8920   0.0000   0.0000   0.0000  24.8920 " ConfE="      -5944.8882" DelE="          0.0000"
Ni     0.00505863   -3.51198526    0.02326769       1
Ni    -3.54014719    0.04083670    0.02061252       2
Ni     3.56200807    0.03234424    0.02765510       3
Cr     0.01760718    0.00009052   -3.50030322       4
Co     0.03608700    0.02267712    3.56499940       5
Co     0.01390911    3.58431913    0.06501319       6
Ni    -1.76231191   -1.76946693    0.00270551       7
Ni     1.74170429   -0.01167868   -1.73962527       8
Ni     0.03748690   -1.74069659    1.80844423       9
Ni    -0.02684344    1.83651976   -1.74461909      10
Co     1.79233737   -1.78249494   -0.02479952      11
Ni    -1.75295821    0.02276554    1.80247935      12
Ni    -1.78752068    1.81724833    0.00491043      13
Cr    -1.73402400   -0.00700152   -1.76289555      14
Cr     0.06172122    1.83605759    1.73418929      15
Co     1.77574677    1.81120129    0.03791725      16
Cr     1.76243468    0.03810268    1.76813384      17
Ni     0.00000000    0.00000000    0.00000000      18
          18
Lattice="  24.8920   0.0000   0.0000   0.0000  24.8920   0.0000   0.0000   0.0000  24.8920 " ConfE="      -5940.6410" DelE="          4.2472"
Ni    -0.00614985   -3.54849429    0.03558823       1
Ni    -3.53770943    0.03087938    0.00331880       2
Ni     3.53071631    0.07139677    0.07112712       3
Cr    -0.02976496    0.00096349   -3.61579692       4
Co    -0.00124739   -0.01995359    3.60015737       5
Co    -0.01530581    3.59638260    0.05239992       6
Ni    -1.71532599   -1.74965495   -0.00812764       7
Ni     1.56809117   -0.15958986   -1.81321750       8
Ni    -0.04049457   -1.81317498    1.83453227       9
Ni    -0.18623475    1.85055445   -1.90145169      10
Co     1.73168494   -1.76603238    0.01313584      11
Ni    -1.72329907    0.01135773    1.76906716      12
Ni    -1.79121934    1.78818264   -0.02416143      13
Cr    -1.60316947   -0.10609288   -1.71943870      14
Cr    -0.00927038    1.79191724    1.78733853      15
Co     2.55034143    1.82172540    1.67383975      16
Cr     1.59374006   -0.19120599    1.73803210      17
Ni     1.34539271    1.51178601   -0.20956965      18
          18
Lattice="  24.8920   0.0000   0.0000   0.0000  24.8920   0.0000   0.0000   0.0000  24.8920 " ConfE="      -5940.8631" DelE="          4.0251"
Ni    -0.00418319   -3.53286436    0.04306919       1
Ni    -3.54664772    0.03721530    0.01447311       2
Ni     3.51966365    0.04121904   -0.00638221       3
Cr    -0.01435022    0.02661884   -3.56724404       4
Co     0.02065092    0.01874672    3.59610537       5
Co    -0.01286106    3.61267344    0.05020009       6
Ni    -1.70291328   -1.72844508   -0.01623556       7
Ni     1.62100613   -0.02517938   -1.73054622       8
Ni     0.04338094   -1.70195332    1.79018624       9
Ni    -0.05521399    1.82641015   -1.74912915      10
Co     1.75103191   -1.75886442   -0.03229488      11
Ni    -1.71923291    0.03018865    1.76868122      12
Ni    -1.77557338    1.79415273   -0.00447332      13
Cr    -1.66372953   -0.03986091   -1.73603322      14
Cr     0.04182182    1.80957208    1.74564248      15
Co     3.37761440    1.90809511    1.82270136      16
Cr     1.72260929    0.02819301    1.74875933      17
Ni     1.72187506    1.79322726   -0.00849544      18
