          18
Lattice="  24.8920   0.0000   0.0000   0.0000  24.8920   0.0000   0.0000   0.0000  24.8920 " ConfE="      -5939.7971" DelE="          0.0000"
Co    -3.44498816    0.01426080    0.07077353       1
Cr    -0.01271783    0.02017311    3.49707706       2
Cr     0.05824011    3.57852396   -0.04139846       3
Cr     0.03629024   -0.01772575   -3.57296989       4
Co     3.60357634    0.00761132   -0.01047871       5
Co     0.02962635   -3.51692042   -0.00662932       6
Ni    -1.71444761    1.77722310    0.01457823       7
Co     0.04576721    1.78043841    1.77520776       8
Cr    -1.72904872   -1.77039402    0.01991319       9
Co    -0.02280929   -1.70724398    1.79162544      10
Ni     0.04290639    1.80840701   -1.80212170      11
Ni     1.81571255    0.01295502   -1.78599882      12
Cr    -1.73051000   -0.03820691   -1.82038013      13
Cr     1.82796067   -0.01316800    1.71691042      14
Cr     1.79431207    1.78382258   -0.00382728      15
Co     0.03158002   -1.77085342   -1.81132702      16
Co     1.79753867   -1.74524518    0.00452613      17
Ni     0.00000000    0.00000000    0.00000000      18
          18
Lattice="  24.8920   0.0000   0.0000   0.0000  24.8920   0.0000   0.0000   0.0000  24.8920 " ConfE="      -5939.4652" DelE="          0.3319"
Co    -3.39981316    0.01633970    0.06542447       1
Cr    -0.02296618   -0.00648414    3.43495780       2
Cr     0.08637106    3.65144119   -0.06598093       3
Cr     0.01882251   -0.00719552   -3.56659460       4
Co     3.60708440    0.01609274   -0.00152309       5
Co     0.02638412   -3.58500264   -0.04005656       6
Ni    -1.73419832    1.94604136   -0.04817951       7
Co     0.07736016    1.97401904    1.78345098       8
Cr    -1.72633260   -1.97170066   -0.04957282       9
Co     0.09456744   -1.96354685    1.80809628      10
Ni     0.04183366    1.82620430   -1.78183635      11
Ni     1.76331708    0.02935492   -1.73518646      12
Cr    -1.63961937   -0.04180682   -1.72030781      13
Cr     1.70475694   -0.03891906    1.64100495      14
Cr     1.73774274    1.76359696    0.02976057      15
Co     0.01642682   -1.75619197   -1.77072583      16
Co     1.75008595   -1.70803301    0.01260651      17
Ni    -0.82296840   -0.02826140    0.85537570      18
          18
Lattice="  24.8920   0.0000   0.0000   0.0000  24.8920   0.0000   0.0000   0.0000  24.8920 " ConfE="      -5939.8582" DelE="         -0.0611"
Co    -3.50602373    0.00813858    0.01757109       1
Cr     0.03062803   -0.02049242    3.61920701       2
Cr     0.06385249    3.60604728   -0.05830333       3
Cr     0.03759379   -0.00924853   -3.58809526       4
Co     3.62385629    0.00839825   -0.01228937       5
Co     0.03214190   -3.55658382   -0.01807163       6
Ni    -1.67766948    1.75737179   -0.00682217       7
Co     0.09068269    1.78157610    1.75412550       8
Cr    -1.64960549   -1.76316035   -0.03473129       9
Co     0.04632586   -1.76079912    1.75993706      10
Ni     0.05412533    1.78852501   -1.77773207      11
Ni     1.79206062    0.01862250   -1.76069412      12
Cr    -1.66171702   -0.05601822   -1.74993726      13
Cr     1.73100098   -0.04841689    1.64816864      14
Cr     1.74951340    1.73832458    0.02478688      15
Co     0.02692249   -1.74030390   -1.77395618      16
Co     1.76427318   -1.70015894    0.00584482      17
Ni    -1.65794486   -0.00222882    1.74025538      18
