          21
Lattice="  24.8920   0.0000   0.0000   0.0000  24.8920   0.0000   0.0000   0.0000  24.8920 " ConfE="      -5940.8631" DelE="          0.0000"
Ni    -1.60431693    3.12241045   -1.71916769       1
Co    -1.58973848    3.13934081    1.84603263       2
Cr    -3.40216340   -0.43149020    0.01376442       3
Ni     0.21036048   -0.42547939    3.63089792       4
Ni     0.23053378   -0.44076538   -3.45862373       5
Cr     3.87145362   -0.31349203    0.14016970       6
Co     2.98373382   -2.37467598    0.27536568       7
Cr     0.06797874   -2.32183759   -1.91515158       8
Cr     0.06135736   -2.31194754    2.12801496       9
Cr     0.17551081    3.08927338    0.08374771      10
Ni    -1.60730544   -2.19243352    0.07680956      11
Ni     2.00882635    1.32920376    0.08914566      12
Co     0.83235066   -2.04836326    0.11152464      13
Ni    -1.58644667   -0.42127682    1.86088396      14
Ni    -1.60510904   -0.41846417   -1.74137713      15
Cr     0.20235612    1.41636955   -1.72186783      16
Co     0.20341135    1.42422803    1.89772886      17
Ni     1.97496588   -0.50183589    1.80404174      18
Cr     1.99451008   -0.55330864   -1.54843188      19
Co    -1.74715829    1.44841190    0.08770644      20
Co     0.00000000    0.00000000    0.00000000      21
          21
Lattice="  24.8920   0.0000   0.0000   0.0000  24.8920   0.0000   0.0000   0.0000  24.8920 " ConfE="      -5940.6410" DelE="          0.2221"
Ni    -1.57904095    3.04714289   -1.63111586       1
Co    -1.57013880    3.03032490    1.76369652       2
Cr    -3.53103263   -0.65088920    0.00303719       3
Ni     0.19599983   -0.47558836    3.63269128       4
Ni     0.21694991   -0.47906857   -3.48594225       5
Cr     3.79250229   -0.42206649    0.13975373       6
Co     2.12990737   -2.29608615    0.11682239       7
Cr     0.18675292   -2.28893980   -1.73375135       8
Cr     0.21225778   -2.24998467    1.86559013       9
Cr     0.29015655    3.34627739    0.13242700      10
Ni    -1.60579260   -2.21850617    0.08702886      11
Ni     2.00316136    1.33415382    0.10139051      12
Co     0.37247988   -0.80998454   -0.00525410      13
Ni    -1.55947592   -0.36461066    1.78145767      14
Ni    -1.59405638   -0.38828645   -1.66386780      15
Cr     0.30778461    1.29885530   -1.87232578      16
Co     0.42528627    1.50177506    2.25750592      17
Ni     1.99641788   -0.43913251    1.86453749      18
Cr     2.00593010   -0.45119392   -1.65079728      19
Co    -2.57443126    1.36204218   -0.06115517      20
Co    -0.42699340    1.26707709    0.20841508      21
          21
Lattice="  24.8920   0.0000   0.0000   0.0000  24.8920   0.0000   0.0000   0.0000  24.8920 " ConfE="      -5944.8882" DelE="         -4.0251"
Ni    -1.56850588    3.10848263   -1.69809502       1
Co    -1.56146343    3.10076932    1.82794506       2
Cr    -3.36233801   -0.42158053    0.03313893       3
Ni     0.20616496   -0.45291094    3.62331448       4
Ni     0.23267124   -0.45024319   -3.46602367       5
Cr     3.80792143   -0.41365295    0.14605788       6
Co     2.01194494   -2.19291578    0.10460602       7
Cr     0.21218088   -2.22368138   -1.64313733       8
Cr     0.22583849   -2.20808058    1.80582046       9
Cr     0.17586935    3.07401579    0.09646572      10
Ni    -1.58561720   -2.20326966    0.08749579      11
Ni     1.99966740    1.32750919    0.09136899      12
Co     0.21397438   -0.41884722    0.07215692      13
Ni    -1.57857423   -0.44528172    1.86422904      14
Ni    -1.56276462   -0.42733898   -1.70733981      15
Cr     0.23609499    1.34646502   -1.66265904      16
Co     0.21656323    1.35115725    1.85303181      17
Ni     2.00570713   -0.43573773    1.87058186      18
Cr     1.98797186   -0.46222491   -1.63178862      19
Co    -3.34902592    1.35151807   -1.69707767      20
Co    -1.58859133    1.32519223    0.06791728      21
