          18
Lattice="  24.8920   0.0000   0.0000   0.0000  24.8920   0.0000   0.0000   0.0000  24.8920 " ConfE="      -5926.0906" DelE="          0.0000"
Cr    -0.00607727    0.03022786    3.52417225       1
Co     0.03183470    3.45850198    0.03473955       2
Ni    -3.52809746    0.01394628   -0.01564271       3
Cr     0.08897675   -3.61079946    0.05265799       4
Co     0.01433874   -0.04962348   -3.51583556       5
Cr     3.57841382   -0.01374715    0.06082125       6
Co    -1.69726121    0.03659050    1.76638691       7
Cr    -1.70647491    1.81543364    0.04106289       8
Cr     1.60824152    0.24747720    1.73568949       9
Co     1.77416417    1.76646252   -0.00634430      10
Ni     0.02695457   -1.81998292   -1.76040478      11
Cr    -1.76066430    0.02575071   -1.74772479      12
Cr    -1.75444938   -1.77192608    0.02180175      13
Cr     0.03182580   -1.79160705    1.79174817      14
Cr    -0.00678842    1.79328850   -1.77738746      15
Cr     1.81320786   -0.01049606   -1.73640249      16
Cr     1.81449151   -1.79447931    0.04252798      17
Co     0.00000000    0.00000000    0.00000000      18
          18
Lattice="  24.8920   0.0000   0.0000   0.0000  24.8920   0.0000   0.0000   0.0000  24.8920 " ConfE="      -5925.2065" DelE="          0.8841"
Cr    -0.00071407    0.06740442    3.49275721       1
Co     0.06662291    3.50016006   -0.01341800       2
Ni    -3.57539817   -0.00443886   -0.03298655       3
Cr     0.08575708   -3.63469673    0.07199850       4
Co     0.00946758   -0.04288916   -3.50957290       5
Cr     3.68735012   -0.03471883    0.00258435       6
Co    -1.83100078   -0.03676132    1.76707319       7
Cr    -1.87028065    1.83735994   -0.01978887       8
Cr     1.85445696    0.08754447    1.71377634       9
Co     1.96262586    1.76626064   -0.08362349      10
Ni     0.01274435   -1.80965724   -1.73030954      11
Cr    -1.66444836    0.04410184   -1.66443111      12
Cr    -1.69713721   -1.69138325    0.06242986      13
Cr     0.02693044   -1.68554621    1.77704257      14
Cr     0.01202489    1.77880640   -1.66927045      15
Cr     1.70638781    0.00467175   -1.64948692      16
Cr     1.75437699   -1.75128609    0.04070504      17
Co     0.00189544    1.22728736    1.07591059      18
          18
Lattice="  24.8920   0.0000   0.0000   0.0000  24.8920   0.0000   0.0000   0.0000  24.8920 " ConfE="      -5925.6358" DelE="          0.4548"
Cr     0.01004072   -0.00742570    3.55853494       1
Co     0.03295331    3.54729136   -0.02173893       2
Ni    -3.55376793    0.01000650   -0.02945338       3
Cr     0.08263907   -3.67931670    0.06042452       4
Co     0.01694189   -0.05356171   -3.49687018       5
Cr     3.64184393   -0.01996556    0.05530400       6
Co    -1.69805225   -0.00999593    1.71469667       7
Cr    -1.71728992    1.77861911    0.01188806       8
Cr     1.64992751    0.08966317    1.58734260       9
Co     1.77531254    1.76548111   -0.02489974      10
Ni     0.03202933   -1.80857088   -1.69705668      11
Cr    -1.68355107    0.02954648   -1.69552906      12
Cr    -1.74162420   -1.73497869    0.00896686      13
Cr    -0.00875157   -1.75598759    1.75011480      14
Cr     0.01175351    1.77946069   -1.70404711      15
Cr     1.73996319   -0.00944916   -1.60976015      16
Cr     1.79587606   -1.82548499    0.07460192      17
Co     0.01153242    1.75675253    1.73478455      18
