          19
Lattice="  24.8920   0.0000   0.0000   0.0000  24.8920   0.0000   0.0000   0.0000  24.8920 " ConfE="      -5926.6286" DelE="          0.0000"
Cr     1.48404055    1.80197482   -3.23165396       1
Ni    -0.02953068   -3.54615205    0.03660286       2
Cr    -0.01700313    3.65349509    0.04433685       3
Cr    -3.61062375    0.08801806    0.00739616       4
Co    -0.04687250    0.03806104   -3.48597001       5
Co     3.51712042    0.06541074    0.01302309       6
Cr    -0.01365861    0.07880854    3.56165791       7
Ni    -1.79881517    0.00822625   -1.73252878       8
Ni     1.74930605    0.08010289    1.75833504       9
Cr    -1.56441181    1.84932636   -0.18223459      10
Cr     1.60620128    1.84281588   -0.10481493      11
Ni    -1.82261522   -1.75790010    0.03022451      12
Ni    -0.03794213   -1.72222671    1.80350631      13
Cr    -1.85375950    0.09649934    1.72543720      14
Co     1.74487085    0.03479841   -1.73823883      15
Cr    -0.02921236    1.85640394    1.78011467      16
Co    -0.03797716   -1.82605624   -1.77817516      17
Co     1.77245055   -1.77363539    0.03712249      18
Ni     0.00000000    0.00000000    0.00000000      19
          19
Lattice="  24.8920   0.0000   0.0000   0.0000  24.8920   0.0000   0.0000   0.0000  24.8920 " ConfE="      -5926.1604" DelE="          0.4682"
Cr     1.53403677    1.77248214   -3.19930503       1
Ni    -0.03187686   -3.53531213    0.02195996       2
Cr    -0.04893263    3.50307721   -0.02775646       3
Cr    -3.71245764   -0.02454933    0.01961644       4
Co    -0.06573692    0.04783059   -3.44482931       5
Co     3.57646982    0.05284657    0.02843075       6
Cr    -0.01482837    0.09349890    3.56470822       7
Ni    -1.98891836   -0.02263019   -1.77332456       8
Ni     1.74927121    0.08739615    1.74173987       9
Cr    -2.18633198    1.87477630   -0.01862474      10
Cr     1.90661843    1.81548683   -0.02320392      11
Ni    -1.83205506   -1.74415040    0.00988847      12
Ni    -0.03306901   -1.65478058    1.73503563      13
Cr    -1.76306802    0.11366617    1.61566335      14
Co     1.82077197   -0.01146995   -1.72909902      15
Cr    -0.01896339    1.83000446    1.73090059      16
Co    -0.05362598   -1.75555054   -1.74193233      17
Co     1.76807491   -1.73144786    0.03146837      18
Ni    -0.14184526    0.96334313   -0.70102079      19
          19
Lattice="  24.8920   0.0000   0.0000   0.0000  24.8920   0.0000   0.0000   0.0000  24.8920 " ConfE="      -5926.6238" DelE="          0.0048"
Cr     1.72468046    1.82991748   -3.46176738       1
Ni    -0.03053199   -3.53426912    0.02982076       2
Cr    -0.04812393    3.63174939    0.10375345       3
Cr    -3.65478816    0.06018302    0.02736188       4
Co    -0.04640213    0.06776176   -3.53138649       5
Co     3.55199940    0.06005303    0.02809190       6
Cr    -0.01087425    0.07498194    3.60221802       7
Ni    -1.80754561    0.03679690   -1.70752394       8
Ni     1.72594266    0.07650267    1.75000667       9
Cr    -1.80765246    1.78694648    0.04953806      10
Cr     1.69936368    1.78663138    0.02481455      11
Ni    -1.80126517   -1.71356327    0.02911725      12
Ni    -0.03430804   -1.67769346    1.77210149      13
Cr    -1.82383794    0.05907450    1.74663950      14
Co     1.71532111    0.06218893   -1.69517610      15
Cr    -0.03359504    1.81104046    1.76085734      16
Co    -0.04129530   -1.75153672   -1.75888498      17
Co     1.74087985   -1.71658114    0.03181495      18
Ni    -0.06125440    1.80043913   -1.67602459      19
