          18
Lattice="  24.8920   0.0000   0.0000   0.0000  24.8920   0.0000   0.0000   0.0000  24.8920 " ConfE="      -5929.5808" DelE="          0.0000"
Co     3.49297502   -0.08503624   -0.07082051       1
Cr    -0.03264519    0.00860285    3.45284062       2
Ni    -0.02629409   -0.05019813   -3.59354135       3
Co    -0.05288233    3.53946575   -0.02749675       4
Cr    -3.60562549   -0.06967935   -0.08131409       5
Co    -0.06741905   -3.58104568   -0.01105983       6
Ni     1.73237878    1.73552933   -0.00379487       7
Cr    -0.05307194    1.81658898    1.72610751       8
Ni    -1.79604923   -0.03790231   -1.78995544       9
Ni     0.00164117   -1.81945078   -1.81497896      10
Co    -0.02938795   -1.71749783    1.73103289      11
Co     1.76140678   -1.80419254   -0.05556001      12
Cr     1.74067882    0.00770826   -1.80167323      13
Co    -0.02373504    1.75764852   -1.82237911      14
Cr    -1.85569734    0.00626376    1.71767143      15
Co    -1.80993877    1.72318433   -0.01739976      16
Cr    -1.76831608   -1.85733544   -0.03700149      17
Ni     0.00000000    0.00000000    0.00000000      18
          18
Lattice="  24.8920   0.0000   0.0000   0.0000  24.8920   0.0000   0.0000   0.0000  24.8920 " ConfE="      -5929.0594" DelE="          0.5214"
Co     3.48295124   -0.07467619   -0.05908011       1
Cr    -0.10123076   -0.01394745    3.51386660       2
Ni    -0.02216110   -0.06098705   -3.57939629       3
Co    -0.06035582    3.60573284   -0.06262282       4
Cr    -3.61269647   -0.07460539   -0.06760049       5
Co    -0.06343623   -3.65214995   -0.04462232       6
Ni     1.74864401    1.85228113   -0.08157604       7
Cr    -0.10228703    2.03802068    1.66184314       8
Ni    -1.76755405   -0.05331504   -1.74776540       9
Ni    -0.00232128   -1.81435803   -1.77676083      10
Co    -0.13513938   -1.93238999    1.70649443      11
Co     1.75919717   -1.87856451   -0.08571083      12
Cr     1.66395306    0.01875954   -1.68030042      13
Co    -0.00508835    1.72418851   -1.79202836      14
Cr    -1.69289469    0.02003008    1.62331568      15
Co    -1.73397744    1.68285532   -0.00400203      16
Cr    -1.74450564   -1.83815304   -0.02098909      17
Ni     1.08537099    0.03934343    1.25125556      18
          18
Lattice="  24.8920   0.0000   0.0000   0.0000  24.8920   0.0000   0.0000   0.0000  24.8920 " ConfE="      -5929.3256" DelE="          0.2552"
Co     3.54485419   -0.07673716   -0.10456535       1
Cr    -0.08834772    0.01263847    3.52831656       2
Ni    -0.03665059   -0.06157613   -3.61021125       3
Co    -0.05485932    3.57613111   -0.04114939       4
Cr    -3.62395766   -0.07150847   -0.08097577       5
Co    -0.07080458   -3.61232953   -0.02911052       6
Ni     1.71137388    1.75251536   -0.04982516       7
Cr    -0.08345903    1.83765338    1.66379308       8
Ni    -1.76106924   -0.05948739   -1.74867627       9
Ni    -0.01775998   -1.82579714   -1.81407650      10
Co    -0.08109101   -1.71085770    1.64906847      11
Co     1.72502500   -1.77784279   -0.10400195      12
Cr     1.66915236   -0.00058447   -1.74650512      13
Co    -0.01264219    1.71930401   -1.80344449      14
Cr    -1.76837222    0.00838829    1.65509123      15
Co    -1.74131753    1.67305879   -0.00089232      16
Cr    -1.76861340   -1.84025043   -0.03492651      17
Ni     1.66798268    0.01873124    1.66305245      18
