          18
Lattice="  24.8920   0.0000   0.0000   0.0000  24.8920   0.0000   0.0000   0.0000  24.8920 " ConfE="      -5930.1044" DelE="          0.0000"
Co     0.00839044   -3.47159548   -0.06821236       1
Cr     3.56386249    0.02483949    0.03234460       2
Ni    -0.00149567    3.61993510   -0.04507872       3
Co    -3.54999306    0.09128380   -0.03422735       4
Ni    -0.00469912    0.04931936   -3.58843920       5
Cr     0.02910671    0.09222125    3.47293941       6
Ni     0.01403672   -1.70282163   -1.78229599       7
Co     0.02386676   -1.71974191    1.68847381       8
Ni     1.78591373    0.03156771   -1.75056176       9
Ni     1.79576603    0.01312042    1.68764339      10
Co    -1.81506621   -1.71357141   -0.01672465      11
Co     1.79072876    1.83670029   -0.03589413      12
Cr    -1.81964021    1.85145738   -0.02519029      13
Ni    -1.80357746    0.06828370   -1.79693945      14
Cr    -1.77457749    0.01939221    1.68694989      15
Co    -0.03919696    1.83733352   -1.78101201      16
Ni     0.02341800    1.83176555    1.71459265      17
Cr     0.00000000    0.00000000    0.00000000      18
          18
Lattice="  24.8920   0.0000   0.0000   0.0000  24.8920   0.0000   0.0000   0.0000  24.8920 " ConfE="      -5929.3017" DelE="          0.8028"
Co     0.01542622   -3.42313239   -0.08300096       1
Cr     3.48710408    0.03865985    0.02944553       2
Ni     0.02147147    3.60544713   -0.04658715       3
Co    -3.55202747    0.07137803   -0.05031313       4
Ni    -0.01408218    0.05237054   -3.65596761       5
Cr     0.03424799    0.15991404    3.61684863       6
Ni    -0.02102527   -1.72146554   -1.94554607       7
Co    -0.03353346   -1.75034267    1.86774352       8
Ni     1.78553980    0.06510239   -1.91651819       9
Ni     1.80541655    0.07837962    1.87265334      10
Co    -1.71593097   -1.65965233   -0.00480795      11
Co     1.77400994    1.71684670   -0.04687140      12
Cr    -1.75072809    1.77879900   -0.05298549      13
Ni    -1.75542029    0.04779687   -1.79452379      14
Cr    -1.66047544   -0.00535236    1.60404026      15
Co    -0.03229043    1.80073538   -1.77051188      16
Ni     0.02757287    1.76824091    1.68009812      17
Cr     0.85352876   -0.88087652    0.01743987      18
          18
Lattice="  24.8920   0.0000   0.0000   0.0000  24.8920   0.0000   0.0000   0.0000  24.8920 " ConfE="      -5930.2382" DelE="         -0.1338"
Co    -0.01337558   -3.51788748   -0.06622897       1
Cr     3.57411370    0.07549890    0.02708487       2
Ni     0.00376972    3.63681600   -0.04745471       3
Co    -3.58558272    0.08578173   -0.04262194       4
Ni    -0.01707901    0.05757499   -3.60637458       5
Cr     0.04060996    0.13545997    3.52829632       6
Ni    -0.01533016   -1.67562932   -1.77793347       7
Co     0.00601106   -1.69000579    1.70261814       8
Ni     1.75470855    0.06563746   -1.76762495       9
Ni     1.76507071    0.05297384    1.69504124      10
Co    -1.75462119   -1.66641147    0.00171121      11
Co     1.78658487    1.80826895   -0.05097484      12
Cr    -1.77986489    1.81082491   -0.04347292      13
Ni    -1.79359645    0.08165813   -1.77551371      14
Cr    -1.72729648    0.01381666    1.61215381      15
Co    -0.05328580    1.84508943   -1.77450501      16
Ni     0.00917357    1.80096607    1.66775770      17
Cr     1.72080193   -1.69950422   -0.01608323      18
