          18
Lattice="  24.8920   0.0000   0.0000   0.0000  24.8920   0.0000   0.0000   0.0000  24.8920 " ConfE="      -5934.3854" DelE="          0.0000"
Co     0.02315150   -3.52095148    0.01889603       1
Cr     3.48471995   -0.01856200    0.04997210       2
Ni    -0.00235082    3.59168991   -0.00365004       3
Cr    -3.53893001    0.05551432   -0.01580774       4
Co     0.05134235   -0.02555848   -3.54500526       5
Cr    -0.00670333    0.00341888    3.53954608       6
Cr     0.14919419   -1.79144726   -1.66326276       7
Co     0.02471247   -1.78320961    1.75738412       8
Co     1.80324082   -0.08242212   -1.72483994       9
Ni     1.74279390    0.01904909    1.76330088      10
Cr    -1.74745593   -1.79840193    0.00743733      11
Ni     1.74435581    1.82790378   -0.00585378      12
Co    -1.81451885    1.75600362    0.03005278      13
Ni    -1.74386865   -0.01336466   -1.76753184      14
Cr    -1.77412425    0.00930281    1.78481759      15
Ni     0.00714777    1.79452049   -1.78094036      16
Co    -0.02822358    1.81172361    1.78930575      17
Ni     0.00000000    0.00000000    0.00000000      18
          18
Lattice="  24.8920   0.0000   0.0000   0.0000  24.8920   0.0000   0.0000   0.0000  24.8920 " ConfE="      -5933.8528" DelE="          0.5326"
Co     0.02100021   -3.46865221    0.02006967       1
Cr     3.40596444   -0.06515244    0.06801412       2
Ni     0.00798630    3.57773137   -0.00394515       3
Cr    -3.54519601    0.04957474   -0.03032418       4
Co     0.04788148   -0.01364227   -3.60660741       5
Cr    -0.03240913    0.02098878    3.63070033       6
Cr     0.08561238   -1.80508919   -1.92748113       7
Co    -0.03267451   -1.85356364    2.00110395       8
Co     1.86637107   -0.00032350   -1.90286094       9
Ni     1.76593545    0.04995046    1.93926827      10
Cr    -1.65268351   -1.75810656    0.00127826      11
Ni     1.68521544    1.73295663   -0.00200628      12
Co    -1.74405138    1.68250856    0.03174318      13
Ni    -1.69763774   -0.01904031   -1.76941872      14
Cr    -1.65367991    0.01724907    1.70556371      15
Ni     0.01329586    1.78445143   -1.80826756      16
Co    -0.02368795    1.77246639    1.79815284      17
Ni     0.71775721   -0.77206771    0.03076948      18
          18
Lattice="  24.8920   0.0000   0.0000   0.0000  24.8920   0.0000   0.0000   0.0000  24.8920 " ConfE="      -5934.4149" DelE="         -0.0295"
Co    -0.02097284   -3.58957348    0.02764054       1
Cr     3.53717948   -0.00996264    0.06598371       2
Ni     0.00133752    3.59116922   -0.00497657       3
Cr    -3.57466655    0.06057714   -0.02070731       4
Co     0.04027163   -0.00911996   -3.59050713       5
Cr    -0.02578848    0.02069968    3.58270799       6
Cr     0.03545682   -1.72205210   -1.71478535       7
Co    -0.04277356   -1.75054037    1.76657701       8
Co     1.77190642   -0.04819387   -1.75189767       9
Ni     1.69983760    0.02870295    1.76614200      10
Cr    -1.67260711   -1.73721437    0.01644837      11
Ni     1.71089475    1.76236942   -0.00418578      12
Co    -1.77983299    1.71187194    0.04429218      13
Ni    -1.71375669    0.00148961   -1.73693939      14
Cr    -1.73785621    0.04922369    1.73351003      15
Ni     0.00590364    1.77092466   -1.76936106      16
Co    -0.04520981    1.77959256    1.77199898      17
Ni     1.72699899   -1.76222562    0.02598649      18
