          18
Lattice="  24.8920   0.0000   0.0000   0.0000  24.8920   0.0000   0.0000   0.0000  24.8920 " ConfE="      -5942.5072" DelE="          0.0000"
Co     0.00755464   -3.48609942   -0.05358878       1
Ni     0.08882126   -0.02210446   -3.50511201       2
Co     0.08270377    3.54639785    0.03675332       3
Co     0.07464828    0.03019215    3.61137629       4
Cr    -3.48703892    0.03427158    0.00679950       5
Cr     3.71648027   -0.00006625   -0.04685230       6
Co    -1.71522377   -1.73445223   -0.01977285       7
Ni     1.78983189   -1.74834374   -0.02351907       8
Ni    -1.65346231   -0.02824421   -1.76249457       9
Ni     1.82143424   -0.02587007   -1.75018346      10
Ni     0.06017524   -1.75465064    1.80930320      11
Co     0.08341195    1.81347503   -1.74545743      12
Ni     0.04956675    1.77215998    1.80424023      13
Ni    -1.70901343    0.01812066    1.82195355      14
Ni     1.85386328    0.01723501    1.78993744      15
Cr    -1.72983484    1.74133564   -0.00840040      16
Ni     1.83943468    1.75763084    0.02741129      17
Cr     0.00000000    0.00000000    0.00000000      18
          18
Lattice="  24.8920   0.0000   0.0000   0.0000  24.8920   0.0000   0.0000   0.0000  24.8920 " ConfE="      -5941.7838" DelE="          0.7234"
Co     0.02029976   -3.44660086   -0.05395413       1
Ni     0.06476598   -0.05039921   -3.40541571       2
Co     0.08938378    3.56005030    0.02545745       3
Co     0.07123744    0.02490735    3.59647155       4
Cr    -3.60772130    0.08795212    0.02537973       5
Cr     3.79521950    0.00920328   -0.03026772       6
Co    -1.88137884   -1.78199663    0.01442817       7
Ni     1.93246101   -1.77006487    0.01252604       8
Ni    -1.88734083    0.01998938   -1.79465255       9
Ni     1.95535913   -0.00490113   -1.75786243      10
Ni     0.07288389   -1.72939142    1.74046965      11
Co     0.04436361    1.72477022   -1.67407648      12
Ni     0.05815405    1.71775990    1.72922103      13
Ni    -1.67856145    0.00180520    1.71509641      14
Ni     1.87022313    0.00603798    1.76201491      15
Cr    -1.70291039    1.68255691   -0.03522521      16
Ni     1.84158883    1.72019144    0.00975403      17
Cr    -0.03377350   -0.77727969   -0.72525882      18
          18
Lattice="  24.8920   0.0000   0.0000   0.0000  24.8920   0.0000   0.0000   0.0000  24.8920 " ConfE="      -5943.0003" DelE="         -0.4931"
Co     0.04243546   -3.54716830    0.00949228       1
Ni     0.08150768    0.00441727   -3.52834986       2
Co     0.08483713    3.57754880    0.03638955       3
Co     0.06750739    0.03447094    3.62867473       4
Cr    -3.52189775    0.05357813    0.00853245       5
Cr     3.71552917    0.00483861   -0.04277064       6
Co    -1.71630446   -1.73104501   -0.00251699       7
Ni     1.80095653   -1.72142842    0.01017240       8
Ni    -1.63714822    0.01204527   -1.70123006       9
Ni     1.80829076   -0.00613072   -1.72719690      10
Ni     0.06196789   -1.73652126    1.77230742      11
Co     0.07532686    1.79168092   -1.71698800      12
Ni     0.04872329    1.75338277    1.77173080      13
Ni    -1.68634858    0.02375089    1.77574995      14
Ni     1.85270585    0.02920528    1.79848623      15
Cr    -1.72140921    1.73069819    0.00539568      16
Ni     1.82480564    1.75099548    0.03475574      17
Cr     0.03944058   -1.83897513   -1.75000745      18
