          18
Lattice="  24.8920   0.0000   0.0000   0.0000  24.8920   0.0000   0.0000   0.0000  24.8920 " ConfE="      -5943.1634" DelE="          0.0000"
Ni     0.00363605    0.05022935   -3.50652767       1
Ni    -0.04369716   -3.54627889   -0.00460817       2
Cr     3.46516793    0.06017084    0.01675588       3
Cr    -0.01687939    3.50464434    0.00826737       4
Cr    -3.57990729   -0.00442455    0.04830442       5
Cr    -0.06294476    0.00724425    3.56659648       6
Ni    -0.00629729    1.76906626   -1.75520117       7
Co     1.76273795    1.70625838    0.01917501       8
Cr    -0.05814152   -1.70899723   -1.75206336       9
Ni    -1.83558959   -1.76908991   -0.00481395      10
Ni    -0.05457210   -1.79013862    1.78943858      11
Cr     1.70779287   -1.69695276    0.01316331      12
Co    -1.86684605    0.01320976   -1.76800220      13
Co    -1.82263194    1.76600117    0.01820920      14
Cr    -0.10366337    1.77251913    1.75654725      15
Co    -1.80633408   -0.00876979    1.80720527      16
Cr     1.71393836    0.02726752    1.84109627      17
Co     0.00000000    0.00000000    0.00000000      18
          18
Lattice="  24.8920   0.0000   0.0000   0.0000  24.8920   0.0000   0.0000   0.0000  24.8920 " ConfE="      -5942.6746" DelE="          0.4889"
Ni    -0.01699538    0.04241752   -3.50348494       1
Ni    -0.06757409   -3.56974388   -0.00127958       2
Cr     3.52496709    0.04953678    0.02731563       3
Cr    -0.04528823    3.58750290    0.02053493       4
Cr    -3.60020015   -0.01218078    0.03990509       5
Cr    -0.05040932   -0.00518953    3.57064488       6
Ni    -0.04637768    1.79778793   -1.73654437       7
Co     1.72198598    1.82075661    0.05297158       8
Cr    -0.16957749   -1.81821524   -1.80656141       9
Ni    -1.81132244   -1.74703310   -0.01125806      10
Ni    -0.05307258   -1.75628182    1.73805594      11
Cr     1.79232626   -1.94529949    0.13172096      12
Co    -1.84372385    0.00677098   -1.75148812      13
Co    -1.80427740    1.74982837    0.01868378      14
Cr    -0.10781447    1.71496343    1.66171250      15
Co    -1.78398291    0.00064337    1.78499497      16
Cr     1.66554544    0.02708610    1.68677205      17
Co     1.22896558   -0.20219501   -1.11566164      18
          18
Lattice="  24.8920   0.0000   0.0000   0.0000  24.8920   0.0000   0.0000   0.0000  24.8920 " ConfE="      -5942.9102" DelE="          0.2533"
Ni    -0.02205514    0.04278420   -3.54849536       1
Ni    -0.04571598   -3.55329608   -0.00658979       2
Cr     3.54901786    0.04652237    0.03136873       3
Cr    -0.03431100    3.54766377    0.02189756       4
Cr    -3.60815460   -0.00929675    0.04594413       5
Cr    -0.05926606    0.00001364    3.58652943       6
Ni    -0.03813783    1.75762433   -1.72775999       7
Co     1.70873082    1.70836093    0.06059688       8
Cr    -0.07899208   -1.69744356   -1.74105189       9
Ni    -1.82035666   -1.74499029   -0.00888519      10
Ni    -0.04732667   -1.73153602    1.73336720      11
Cr     1.70692458   -1.69559929    0.01234954      12
Co    -1.82927542   -0.00074757   -1.75403710      13
Co    -1.80426727    1.74031741    0.02773125      14
Cr    -0.13377242    1.73903867    1.72266636      15
Co    -1.79280387    0.00459258    1.79403911      16
Cr     1.68754369    0.05142041    1.75904649      17
Co     1.70487097   -0.04119443   -1.67246631      18
