          18
Lattice="  24.8920   0.0000   0.0000   0.0000  24.8920   0.0000   0.0000   0.0000  24.8920 " ConfE="      -5933.6828" DelE="          0.0000"
Ni     0.04300798   -0.01634266   -3.57233519       1
Cr     0.05170547   -0.03427612    3.40750424       2
Cr    -3.49929186   -0.03977249    0.03641549       3
Ni     0.02881279   -3.57740755   -0.00870166       4
Cr     3.58061515   -0.04870550   -0.00012612       5
Cr    -0.01474629    3.50629943   -0.05398860       6
Co    -1.75065842   -1.72572426   -0.01926818       7
Cr     0.03022165   -1.67064199    1.67567332       8
Ni     0.04159103    1.76904617   -1.82444046       9
Cr     0.01108202    1.65884503    1.66359179      10
Cr    -1.74244285    1.67990388   -0.00831450      11
Ni     1.83464803    1.77843063   -0.05205155      12
Cr    -0.03341469   -1.74717964   -1.72833160      13
Co    -1.78502217    0.03268963   -1.86147413      14
Co     1.83611751   -0.03297193   -1.79237942      15
Co     1.79794486   -1.79666635   -0.04014720      16
Co     1.86298355   -0.00978797    1.72956135      17
Co     0.00000000    0.00000000    0.00000000      18
          18
Lattice="  24.8920   0.0000   0.0000   0.0000  24.8920   0.0000   0.0000   0.0000  24.8920 " ConfE="      -5933.3107" DelE="          0.3721"
Ni     0.02948466   -0.01414573   -3.55009366       1
Cr     0.02905737   -0.02966281    3.36042946       2
Cr    -3.53814368   -0.05314970    0.07849888       3
Ni     0.05702674   -3.65778794   -0.02768898       4
Cr     3.60277574   -0.04953237    0.00882021       5
Cr     0.04557024    3.60330509   -0.07930695       6
Co    -1.77715381   -1.95377524   -0.08589822       7
Cr     0.10323543   -1.81697107    1.65656469       8
Ni     0.05021444    1.75091887   -1.76380875       9
Cr     0.06830649    1.84593424    1.64385526      10
Cr    -1.75716009    1.90833326   -0.08789334      11
Ni     1.82080652    1.76964091   -0.04538472      12
Cr    -0.03672685   -1.65456715   -1.58322626      13
Co    -1.76244092    0.02814461   -1.71218090      14
Co     1.83412448   -0.03108964   -1.77096254      15
Co     1.76110521   -1.78166632   -0.03249171      16
Co     1.75692519   -0.00107264    1.69907910      17
Co    -1.07657951    0.00235871    0.96526574      18
          18
Lattice="  24.8920   0.0000   0.0000   0.0000  24.8920   0.0000   0.0000   0.0000  24.8920 " ConfE="      -5933.7781" DelE="         -0.0952"
Ni     0.04056389   -0.01734215   -3.57688459       1
Cr     0.09664280   -0.02703905    3.48469684       2
Cr    -3.57047756   -0.02862521   -0.00037697       3
Ni     0.04465488   -3.60579464   -0.02028607       4
Cr     3.62615648   -0.04611455   -0.00914312       5
Cr    -0.00675301    3.53209267   -0.06226700       6
Co    -1.70568608   -1.73789986   -0.05351822       7
Cr     0.07503943   -1.63803704    1.60127134       8
Ni     0.04836713    1.72865456   -1.78508072       9
Cr     0.04393595    1.62922644    1.60649970      10
Cr    -1.71745843    1.69059459   -0.04960133      11
Ni     1.82758136    1.75116670   -0.05863133      12
Cr    -0.02088646   -1.68543901   -1.65335571      13
Co    -1.77589881    0.03197220   -1.82215984      14
Co     1.84053945   -0.04068556   -1.78978146      15
Co     1.77164836   -1.76475886   -0.04613674      16
Co     1.81096396   -0.00674056    1.71091935      17
Co    -1.66477523   -0.01039142    1.69738022      18
