          23
Lattice="  24.8920   0.0000   0.0000   0.0000  24.8920   0.0000   0.0000   0.0000  24.8920 " ConfE="      -5940.5940" DelE="          0.0000"
Ni     0.00129327   -2.67878902   -2.46437443       1
Co    -0.02941954    2.63628781    2.79998095       2
Cr    -1.59475035   -0.80619636   -2.47457608       3
Cr    -3.63595015   -0.93231193   -0.61950785       4
Co    -1.74344332    0.90543158    2.81198003       5
Cr    -1.55729129    2.47574014    1.03869095       6
Ni     1.75469268   -2.66087787   -0.66647346       7
Cr     1.61995267   -0.86072307   -2.37903895       8
Ni     1.65954421    0.84287881    2.80164151       9
Cr     1.53849662    2.48677810    1.02988492      10
Co     3.61451428   -0.92806878   -0.73464059      11
Cr     3.66942528    0.78466272    1.14797753      12
Ni    -3.56570339    0.92020645    1.12009577      13
Cr    -0.02651053   -2.66060672    1.06851547      14
Cr    -1.66707227   -2.37734672   -0.66958272      15
Co     0.03579054    0.91135140   -2.48296347      16
Cr    -0.06608249   -0.82645469    2.82280670      17
Co     0.02195352    2.58447238   -0.71792607      18
Co    -1.82222961   -0.84565261    1.12863080      19
Cr    -1.90774108    0.87453849   -0.76641349      20
Co     1.81284508   -0.89988293    1.07815656      21
Cr     2.00208478    0.88787005   -0.73772202      22
Cr     0.00000000    0.00000000    0.00000000      23
          23
Lattice="  24.8920   0.0000   0.0000   0.0000  24.8920   0.0000   0.0000   0.0000  24.8920 " ConfE="      -5940.4572" DelE="          0.1368"
Ni     0.00745974   -2.68458647   -2.49459654       1
Co    -0.03534641    2.64066649    2.78224395       2
Cr    -1.62135907   -0.81246572   -2.54289661       3
Cr    -3.63383542   -0.93690274   -0.62231534       4
Co    -1.72391445    0.90087321    2.79430331       5
Cr    -1.60668101    2.54877259    1.04923057       6
Ni     1.74951995   -2.66183510   -0.68247522       7
Cr     1.64169024   -0.86314781   -2.38710506       8
Ni     1.63319544    0.83950735    2.76362390       9
Cr     1.58461895    2.57303653    1.04388198      10
Co     3.62080634   -0.93227658   -0.73028975      11
Cr     3.64356147    0.77934114    1.13972221      12
Ni    -3.54833904    0.91858465    1.11335481      13
Cr    -0.02036373   -2.64254815    1.07023128      14
Cr    -1.59434433   -2.27851740   -0.67609593      15
Co     0.03526834    0.86685863   -2.41174386      16
Cr    -0.05610245   -0.85988741    2.89102592      17
Co     0.01569983    2.61237359   -0.69978726      18
Co    -1.85773958   -0.87958059    1.16032237      19
Cr    -1.85970797    0.82508516   -0.76004198      20
Co     1.82705186   -0.94782692    1.07731962      21
Cr     1.94060556    0.86485524   -0.71157194      22
Cr    -0.01400983    0.24944815    0.43890528      23
          23
Lattice="  24.8920   0.0000   0.0000   0.0000  24.8920   0.0000   0.0000   0.0000  24.8920 " ConfE="      -5940.8587" DelE="         -0.2647"
Ni    -0.00040601   -2.69551625   -2.49891350       1
Co    -0.02722614    2.66228689    2.83040991       2
Cr    -1.62437875   -0.85116857   -2.53118227       3
Cr    -3.55816322   -0.90972276   -0.62969325       4
Co    -1.78491645    0.90819922    2.87308746       5
Cr    -1.70164699    2.64547676    1.05430279       6
Ni     1.73257977   -2.67204241   -0.69519799       7
Cr     1.65159633   -0.87645025   -2.45301294       8
Ni     1.71019323    0.85584725    2.85616358       9
Cr     1.71645448    2.61038436    1.05808450      10
Co     3.55642440   -0.89371039   -0.72811133      11
Cr     3.57001059    0.75968754    1.06634123      12
Ni    -3.50067607    0.91069578    1.09416758      13
Cr    -0.02274915   -2.68811179    1.05325115      14
Cr    -1.67474011   -2.44625615   -0.69376086      15
Co     0.01377169    0.91044722   -2.52556055      16
Cr    -0.04777901   -0.85350612    2.91814438      17
Co    -0.00255716    2.67978446   -0.73041246      18
Co    -1.72817384   -0.86301903    1.07817590      19
Cr    -1.65262750    0.77509208   -0.74089531      20
Co     1.69215958   -0.88931929    1.03523793      21
Cr     1.61296880    0.80403587   -0.71420441      22
Cr    -0.04169640    0.85641604    1.07495385      23
