          18
Lattice="  24.8920   0.0000   0.0000   0.0000  24.8920   0.0000   0.0000   0.0000  24.8920 " ConfE="      -5944.8061" DelE="          0.0000"
Ni    -3.44799584    0.05647972   -0.02817075       1
Co    -0.04147536    0.05909648   -3.52271262       2
Co     3.55476413    0.04194340    0.03071191       3
Cr     0.01314213    0.00317382    3.56080388       4
Co     0.05389660    3.64088012    0.04047922       5
Cr     0.02892063   -3.45418188    0.03021916       6
Ni    -1.72972111    1.81088231   -0.02752410       7
Co    -1.74204105   -1.73526231    0.01830626       8
Co    -0.02111983    1.81731911   -1.79208689       9
Cr    -0.19029052   -1.58320033   -1.71910924      10
Ni    -1.74028633    0.06648844    1.83701881      11
Ni     1.77839583    0.03634642   -1.76078656      12
Co     1.78356898    0.02858549    1.79528459      13
Ni     0.02320222    1.81840544    1.79481749      14
Co     0.01899955   -1.75683173    1.81189261      15
Ni     1.75974266    1.80783841   -0.00794821      16
Cr     1.75597472   -1.70003529    0.04307157      17
Co     0.00000000    0.00000000    0.00000000      18
          18
Lattice="  24.8920   0.0000   0.0000   0.0000  24.8920   0.0000   0.0000   0.0000  24.8920 " ConfE="      -5944.2760" DelE="          0.5301"
Ni    -3.42822296    0.06826282   -0.01592205       1
Co    -0.04972889    0.05822057   -3.49131212       2
Co     3.54182651    0.04242225    0.02015991       3
Cr    -0.00391792    0.01067296    3.57942267       4
Co     0.06708403    3.69726203    0.06196943       5
Cr     0.01962464   -3.54293665    0.06383891       6
Ni    -1.74512895    1.92279326    0.01734447       7
Co    -1.78307630   -1.83677775    0.06302791       8
Co     0.02358432    2.00593315   -1.83772119       9
Cr    -0.04672613   -1.88497571   -1.78371872      10
Ni    -1.70247081    0.06848111    1.79338157      11
Ni     1.71388380    0.03200633   -1.74382359      12
Co     1.72332366    0.01755191    1.73954755      13
Ni     0.01697001    1.82255960    1.78542940      14
Co     0.00662049   -1.75628591    1.77301869      15
Ni     1.70959156    1.78976153   -0.01933644      16
Cr     1.63134281   -1.64535672    0.04751616      17
Co    -0.69427853   -0.00782190   -0.88783455      18
          18
Lattice="  24.8920   0.0000   0.0000   0.0000  24.8920   0.0000   0.0000   0.0000  24.8920 " ConfE="      -5945.0443" DelE="         -0.2381"
Ni    -3.49307643    0.06143448    0.00980879       1
Co    -0.01283600    0.06077846   -3.58085577       2
Co     3.56216612    0.04211569    0.02760539       3
Cr     0.00549571    0.00744888    3.59336998       4
Co     0.06207902    3.65433929    0.04794245       5
Cr     0.03260408   -3.51334730    0.05070270       6
Ni    -1.69835190    1.80869799   -0.00396948       7
Co    -1.68547041   -1.70608428    0.02847132       8
Co     0.00003654    1.84930332   -1.79712833       9
Cr    -0.09950283   -1.65546127   -1.67612849      10
Ni    -1.70981050    0.06535916    1.80261317      11
Ni     1.70146885    0.02829625   -1.71498067      12
Co     1.75757322    0.01823624    1.76649859      13
Ni     0.02763834    1.80039177    1.79147808      14
Co     0.03055013   -1.73759357    1.77749217      15
Ni     1.73474141    1.78484453   -0.00225606      16
Cr     1.69649507   -1.66970539    0.07349235      17
Co    -1.73189754    0.04252353   -1.76859239      18
