          18
Lattice="  24.8920   0.0000   0.0000   0.0000  24.8920   0.0000   0.0000   0.0000  24.8920 " ConfE="      -5944.4532" DelE="          0.0000"
Cr    -0.03767725   -3.43604637   -0.05021459       1
Co     0.00201254   -0.01246702    3.47318768       2
Ni     0.01141732    3.58275335   -0.06787246       3
Ni     0.00503701    0.00534186   -3.62787940       4
Cr    -3.47560385    0.01100731   -0.03304952       5
Cr     3.52347684    0.03167082   -0.00620478       6
Co    -1.75681915   -1.73728906    0.00442246       7
Cr     1.75210035   -1.73026984    0.03548199       8
Cr    -1.68017089   -0.04090628    1.79448727       9
Co     1.74921955   -0.05840908    1.74088945      10
Co     0.02087224   -1.74894848   -1.79055116      11
Ni     0.00065480    1.82653032    1.75409924      12
Co    -0.01560379    1.78656199   -1.84552859      13
Cr    -1.70742376    0.01228814   -1.83908723      14
Cr     1.72711907    0.04294189   -1.79360731      15
Ni    -1.74825059    1.79668029   -0.04147079      16
Co     1.77151965    1.75642122   -0.03592666      17
Ni     0.00000000    0.00000000    0.00000000      18
          18
Lattice="  24.8920   0.0000   0.0000   0.0000  24.8920   0.0000   0.0000   0.0000  24.8920 " ConfE="      -5944.0165" DelE="          0.4367"
Cr    -0.03124562   -3.43142398   -0.03063954       1
Co     0.01789913   -0.03395298    3.45657058       2
Ni     0.01414087    3.57364552   -0.05837118       3
Ni    -0.00767306    0.00061172   -3.63348697       4
Cr    -3.53269510    0.02995699   -0.08118280       5
Cr     3.66139879    0.07199975    0.00670538       6
Co    -1.99993379   -1.79783210   -0.05715403       7
Cr     1.99232665   -1.68376101   -0.07479191       8
Cr    -1.86231998    0.04856426    1.76783716       9
Co     1.91655049    0.01823141    1.77680178      10
Co     0.00316179   -1.71730434   -1.70296156      11
Ni     0.00796262    1.72267551    1.70925218      12
Co    -0.02464322    1.75182748   -1.81358375      13
Cr    -1.61805461   -0.03487619   -1.73396004      14
Cr     1.57731658    0.08063121   -1.70975978      15
Ni    -1.74183417    1.77147534   -0.05278364      16
Co     1.75770690    1.69362198   -0.03508325      17
Ni    -0.00632373   -0.92294569    0.80483563      18
          18
Lattice="  24.8920   0.0000   0.0000   0.0000  24.8920   0.0000   0.0000   0.0000  24.8920 " ConfE="      -5944.6527" DelE="         -0.1995"
Cr    -0.04445869   -3.50801925   -0.09710297       1
Co     0.02170062    0.02809890    3.53594037       2
Ni     0.01370768    3.60474461   -0.06769084       3
Ni    -0.00405303    0.01320819   -3.65494604       4
Cr    -3.51590627    0.03567886   -0.06445420       5
Cr     3.56469042    0.04690175   -0.01582764       6
Co    -1.75916123   -1.68060534   -0.02861561       7
Cr     1.77297010   -1.67229440   -0.01402295       8
Cr    -1.69726526    0.02718065    1.67760346       9
Co     1.74902837   -0.01285458    1.69539618      10
Co     0.03243746   -1.69662177   -1.72820461      11
Ni     0.00009716    1.78803106    1.73326371      12
Co    -0.01969861    1.77985820   -1.84325876      13
Cr    -1.60933537    0.00146098   -1.75443023      14
Cr     1.58502208    0.08457058   -1.72546185      15
Ni    -1.71252652    1.78479639   -0.06121411      16
Co     1.73086044    1.71663289   -0.05063783      17
Ni    -0.00347369   -1.72922341    1.72351842      18
