          18
Lattice="  24.8920   0.0000   0.0000   0.0000  24.8920   0.0000   0.0000   0.0000  24.8920 " ConfE="      -5950.4780" DelE="          0.0000"
Co    -3.56945526   -0.07831591    0.06982287       1
Co     0.01304846    3.45856060    0.05007409       2
Ni     3.54667326   -0.07423173    0.07131727       3
Ni     0.03219168   -3.64283901    0.04779285       4
Ni    -0.03264916   -0.09980390    3.61405891       5
Co    -0.01225288   -0.06080426   -3.47497191       6
Co    -1.80810706   -0.03856009    1.76329224       7
Cr    -1.75349972   -0.03073248   -1.65470164       8
Ni     0.00503741    1.68183836    1.80577555       9
Co    -0.02033596    1.70218825   -1.65525780      10
Ni    -1.75672732   -1.87629442    0.06779822      11
Co     1.82850989    1.71244157    0.05236906      12
Co     1.77990423   -1.81851376    0.03647029      13
Ni    -0.01232215   -1.84065921    1.82096904      14
Co     0.00749600   -1.81393274   -1.71901963      15
Ni     1.77381411   -0.08307746    1.82350639      16
Cr     1.75279142   -0.09316144   -1.75804018      17
Cr     0.00000000    0.00000000    0.00000000      18
          18
Lattice="  24.8920   0.0000   0.0000   0.0000  24.8920   0.0000   0.0000   0.0000  24.8920 " ConfE="      -5949.9511" DelE="          0.5269"
Co    -3.50005661   -0.05446080    0.08769658       1
Co    -0.01791336    3.39474954    0.04627119       2
Ni     3.54755609   -0.05680039    0.08699630       3
Ni     0.02599338   -3.63867203    0.05440943       4
Ni    -0.02529579   -0.11160819    3.67296053       5
Co    -0.01163040   -0.06002901   -3.53954327       6
Co    -1.81229930   -0.09047234    1.90885994       7
Cr    -1.81244453   -0.11931544   -1.80948218       8
Ni     0.04269970    1.70665604    1.94407793       9
Co     0.01222817    1.75131167   -1.80976647      10
Ni    -1.74021695   -1.82852028    0.09657766      11
Co     1.74642820    1.67907443    0.04554386      12
Co     1.73122231   -1.74811014    0.03129971      13
Ni    -0.01303135   -1.82390297    1.83347989      14
Co    -0.00988169   -1.70781419   -1.67324744      15
Ni     1.74106613   -0.06854963    1.82182398      16
Cr     1.66258754   -0.08080696   -1.67540509      17
Cr    -0.73669526    0.67352990    0.02706052      18
          18
Lattice="  24.8920   0.0000   0.0000   0.0000  24.8920   0.0000   0.0000   0.0000  24.8920 " ConfE="      -5950.6354" DelE="         -0.1574"
Co    -3.60163622   -0.10977202    0.04975422       1
Co     0.02165300    3.48741428    0.05883656       2
Ni     3.54698078   -0.06931280    0.06997411       3
Ni     0.03214423   -3.65464380    0.05014668       4
Ni    -0.02734199   -0.11174141    3.64427014       5
Co     0.00712726   -0.06575506   -3.53294876       6
Co    -1.79194785   -0.07618999    1.78964570       7
Cr    -1.62703757   -0.07492208   -1.63404942       8
Ni     0.02164013    1.65570031    1.81473219       9
Co     0.01904296    1.65864573   -1.65309339      10
Ni    -1.73485765   -1.84493621    0.07568717      11
Co     1.78380799    1.68651551    0.05346722      12
Co     1.78329559   -1.80744325    0.03609538      13
Ni    -0.00024646   -1.84376366    1.82316072      14
Co     0.02515730   -1.77289822   -1.69508254      15
Ni     1.76075377   -0.09329166    1.80919647      16
Cr     1.68662381   -0.11222333   -1.70972471      17
Cr    -1.71373691    1.62174089    0.06403696      18
