          18
Lattice="  24.8920   0.0000   0.0000   0.0000  24.8920   0.0000   0.0000   0.0000  24.8920 " ConfE="      -5935.4402" DelE="          0.0000"
Ni    -3.45258190    0.03074596    0.02451562       1
Ni    -0.00157312    0.02284973    3.48361076       2
Cr     3.58852176   -0.07894811    0.02721641       3
Cr    -0.03962624    0.00092827   -3.58183002       4
Cr     0.00732769    3.51892387    0.04227221       5
Cr    -0.02664037   -3.52283230    0.03155347       6
Co    -1.71036697    1.79302662    0.00903716       7
Co    -1.76894215   -1.79081663   -0.00361913       8
Co    -0.00751817    1.81568237    1.72656569       9
Co    -0.00242259   -1.77619834    1.73875166      10
Co    -1.73328979    0.01377200   -1.81611079      11
Ni     1.81721949    0.01761106    1.75182896      12
Ni     1.82272862   -0.01701500   -1.81238182      13
Cr     0.03699285    1.76952676   -1.79778656      14
Ni     0.01344034   -1.76227741   -1.78402791      15
Ni     1.81497675    1.76512535   -0.02582200      16
Co     1.85007683   -1.79889571    0.00718013      17
Ni     0.00000000    0.00000000    0.00000000      18
          18
Lattice="  24.8920   0.0000   0.0000   0.0000  24.8920   0.0000   0.0000   0.0000  24.8920 " ConfE="      -5934.8784" DelE="          0.5618"
Ni    -3.40281056    0.03380069    0.04165575       1
Ni    -0.01487249    0.02389132    3.44161365       2
Cr     3.60101940   -0.10014258    0.04582940       3
Cr    -0.04241433    0.01186905   -3.59666200       4
Cr     0.05134207    3.57302135    0.00187851       5
Cr    -0.01945891   -3.56081549    0.00261210       6
Co    -1.77553735    1.96412730   -0.01409630       7
Co    -1.80115567   -1.93998757   -0.03677527       8
Co     0.04896820    1.97292144    1.76345452       9
Co     0.05000335   -1.93640040    1.79184323      10
Co    -1.70112680    0.02025680   -1.74887388      11
Ni     1.74649620    0.01271604    1.71520571      12
Ni     1.80143633   -0.02754180   -1.77382389      13
Cr    -0.01400575    1.63082517   -1.63618085      14
Ni     0.00723413   -1.75100874   -1.76194367      15
Ni     1.81303804    1.75830935   -0.01564498      16
Co     1.82006415   -1.80707013    0.02058252      17
Ni    -0.70438592    0.01325628    0.69446404      18
          18
Lattice="  24.8920   0.0000   0.0000   0.0000  24.8920   0.0000   0.0000   0.0000  24.8920 " ConfE="      -5935.5496" DelE="         -0.1094"
Ni    -3.50391293    0.03335789   -0.01760219       1
Ni     0.03467713    0.02045039    3.54401223       2
Cr     3.59811085   -0.08149525    0.03367151       3
Cr    -0.04036470   -0.00068189   -3.60114676       4
Cr     0.03846868    3.60013764    0.01841803       5
Cr    -0.01287582   -3.55648472    0.01958510       6
Co    -1.63309338    1.77670796   -0.03629685       7
Co    -1.75210671   -1.78222695   -0.01993630       8
Co     0.02492343    1.82578065    1.71423149       9
Co     0.02503226   -1.76580950    1.70082593      10
Co    -1.68394990    0.02814209   -1.76273702      11
Ni     1.76643001    0.01816656    1.72078677      12
Ni     1.80432863   -0.01322416   -1.79080375      13
Cr     0.02126138    1.72558975   -1.76896686      14
Ni     0.02320656   -1.72969730   -1.74244802      15
Ni     1.77490428    1.74431470   -0.03443733      16
Co     1.84854694   -1.79584389    0.00561754      17
Ni    -1.70834498    0.03235314    1.73512947      18
