          18
Lattice="  24.8920   0.0000   0.0000   0.0000  24.8920   0.0000   0.0000   0.0000  24.8920 " ConfE="      -5938.4080" DelE="          0.0000"
Ni    -0.03789263    0.04633632   -3.51106985       1
Ni    -3.54192384    0.03796569   -0.02293903       2
Cr     0.12369895    0.08122403    3.51049859       3
Cr     3.51786303    0.02558241    0.00663438       4
Cr     0.04404265   -3.46918378    0.00932987       5
Cr     0.02414313    3.51482349    0.02089143       6
Cr     0.01975773   -1.72059921   -1.64402155       7
Ni    -0.02019374    1.77052785   -1.74827373       8
Ni    -1.76675379   -1.69892166   -0.02506388       9
Co    -1.81822803    1.80318314   -0.05024692      10
Ni     1.78483000    0.04980563   -1.77741844      11
Ni    -1.78269859    0.05602568    1.82313434      12
Co     1.80405530    0.03548936    1.76602102      13
Co     1.75978799   -1.75282724    0.01082299      14
Co     1.80346941    1.79262758    0.00267349      15
Cr     0.02638533   -1.68196101    1.73233008      16
Ni    -0.02501937    1.80167642    1.76817822      17
Co     0.00000000    0.00000000    0.00000000      18
          18
Lattice="  24.8920   0.0000   0.0000   0.0000  24.8920   0.0000   0.0000   0.0000  24.8920 " ConfE="      -5937.6827" DelE="          0.7253"
Ni    -0.03270670    0.05695705   -3.47119717       1
Ni    -3.52009944    0.02559815   -0.03151307       2
Cr     0.10883435    0.09283547    3.52009767       3
Cr     3.53875156    0.04201924    0.00460574       4
Cr     0.02364412   -3.55221397    0.04685761       5
Cr     0.04897516    3.60965627    0.05049860       6
Cr     0.08227923   -1.86581337   -1.64326729       7
Ni     0.06610213    1.95940196   -1.78246611       8
Ni    -1.82302657   -1.85753259    0.03886850       9
Co    -1.82822137    1.91509546   -0.02359807      10
Ni     1.72646505    0.05654126   -1.72699422      11
Ni    -1.74903885    0.04517117    1.75042528      12
Co     1.75064949    0.03104323    1.73014154      13
Co     1.71739486   -1.73203042    0.01689656      14
Co     1.79578954    1.80392783    0.00122394      15
Cr     0.02796213   -1.63820294    1.62186367      16
Ni    -0.02473312    1.78612168    1.71220326      17
Co    -0.77294164   -0.01267587   -0.86369440      18
          18
Lattice="  24.8920   0.0000   0.0000   0.0000  24.8920   0.0000   0.0000   0.0000  24.8920 " ConfE="      -5938.3178" DelE="          0.0902"
Ni    -0.01481308    0.05556114   -3.56270096       1
Ni    -3.56684061    0.02670578    0.01619046       2
Cr     0.12782405    0.09534800    3.55246339       3
Cr     3.53398124    0.03008241    0.01304105       4
Cr     0.04769457   -3.50002172    0.01805092       5
Cr     0.03676670    3.56316900    0.03656014       6
Cr     0.00923683   -1.70516255   -1.63564570       7
Ni    -0.00332450    1.77665937   -1.71862655       8
Ni    -1.72393032   -1.69655497    0.01913921       9
Co    -1.80228763    1.82686582   -0.00589378      10
Ni     1.73299052    0.04591361   -1.74250998      11
Ni    -1.74527127    0.05490169    1.80172299      12
Co     1.76165035    0.02536693    1.74924188      13
Co     1.67920589   -1.72099542    0.01891152      14
Co     1.78776927    1.78360705    0.00712972      15
Cr     0.05315002   -1.65937099    1.72557295      16
Ni    -0.01471802    1.77959473    1.74469662      17
Co    -1.75249870    0.03009402   -1.72541738      18
