          18
Lattice="  24.8920   0.0000   0.0000   0.0000  24.8920   0.0000   0.0000   0.0000  24.8920 " ConfE="      -5948.7526" DelE="          0.0000"
Cr     3.54924340   -0.07544217    0.02134908       1
Co     0.02561307   -0.02380787   -3.46366655       2
Ni     0.00977505   -3.54808554    0.03513738       3
Cr    -0.00984852    3.56450307   -0.01797665       4
Co     0.02281415    0.01255829    3.60192386       5
Co    -3.55846770   -0.03238923    0.04342766       6
Ni     1.75950262    1.72875879   -0.02949201       7
Co     1.82728308   -1.68492273   -0.07410505       8
Cr    -0.05452243   -1.73665579   -1.71577664       9
Co     0.00410335    1.75684184   -1.80157067      10
Ni     1.76427917   -0.01435996    1.80629982      11
Ni    -0.00297025    1.78202856    1.80435823      12
Ni    -1.77562488    1.78860192    0.02027855      13
Co    -1.80045197   -0.02183064   -1.73396798      14
Co    -0.04783255   -1.74563313    1.76638202      15
Co    -1.83196455   -1.78058787    0.02503759      16
Cr    -1.77578961   -0.01721028    1.81532480      17
Ni     0.00000000    0.00000000    0.00000000      18
          18
Lattice="  24.8920   0.0000   0.0000   0.0000  24.8920   0.0000   0.0000   0.0000  24.8920 " ConfE="      -5948.0505" DelE="          0.7021"
Cr     3.49829371   -0.06468256   -0.00045279       1
Co     0.03119128   -0.01558114   -3.43608472       2
Ni    -0.00692811   -3.61533388    0.04450435       3
Cr    -0.01705526    3.65737533    0.01974290       4
Co     0.02997272    0.01413021    3.59594503       5
Co    -3.56392467   -0.02668780    0.03773413       6
Ni     1.77694520    1.89022089    0.04779808       7
Co     1.82847275   -1.94821366    0.05442857       8
Cr    -0.12231935   -1.88474228   -1.71836697       9
Co    -0.05543414    1.93276962   -1.78846651      10
Ni     1.71881439   -0.02050709    1.71018772      11
Ni    -0.00901431    1.78998148    1.77990239      12
Ni    -1.74827272    1.79175349    0.02868750      13
Co    -1.71766077   -0.00297786   -1.67899443      14
Co    -0.06897516   -1.70857756    1.71034694      15
Co    -1.78298945   -1.75848589    0.00636072      16
Cr    -1.70488836   -0.02375047    1.74504939      17
Ni     0.91174155   -0.04442222   -0.89402034      18
          18
Lattice="  24.8920   0.0000   0.0000   0.0000  24.8920   0.0000   0.0000   0.0000  24.8920 " ConfE="      -5948.7416" DelE="          0.0110"
Cr     3.58994322   -0.06778776    0.06532483       1
Co    -0.01116331   -0.02013809   -3.53223476       2
Ni    -0.00580033   -3.57951427    0.04264271       3
Cr    -0.01958585    3.60146960   -0.00906238       4
Co     0.02436207    0.01367646    3.62000145       5
Co    -3.57039457   -0.03160656    0.04168287       6
Ni     1.72495728    1.74377209    0.00890036       7
Co     1.74442074   -1.76843768    0.00772994       8
Cr    -0.09732659   -1.71809625   -1.65139580       9
Co    -0.02700723    1.76718583   -1.77698909      10
Ni     1.73330497   -0.01881589    1.76464009      11
Ni    -0.01680600    1.75696348    1.78173862      12
Ni    -1.75016505    1.75882092    0.03335586      13
Co    -1.72346932   -0.02130478   -1.69095119      14
Co    -0.08098199   -1.68755218    1.72923592      15
Co    -1.79457586   -1.75060297    0.02316622      16
Cr    -1.74912709   -0.02472158    1.79684633      17
Ni     1.72824679   -0.02510102   -1.68705822      18
