          18
Lattice="  24.8920   0.0000   0.0000   0.0000  24.8920   0.0000   0.0000   0.0000  24.8920 " ConfE="      -5944.8715" DelE="          0.0000"
Ni    -3.53658131   -0.01825858   -0.00563896       1
Co     0.06596061    3.52754708    0.02965257       2
Co     3.46738600    0.00073155    0.01089222       3
Cr    -0.00504194   -3.56295733    0.03473247       4
Co    -0.04584942   -0.01773867   -3.56304265       5
Cr    -0.00846957   -0.05803833    3.53690258       6
Ni     0.02086334    1.75020641    1.75838313       7
Ni     1.72327365   -0.00493248   -1.74588786       8
Ni    -1.79520909    1.76817262   -0.02093842       9
Ni    -1.77767881   -0.00278383    1.80083179      10
Co    -0.00770394    1.78144977   -1.79559497      11
Co     1.75500559   -0.03130317    1.77429759      12
Co    -1.80576563   -0.02961816   -1.79804809      13
Co    -1.77383853   -1.81509001    0.01096892      14
Cr     1.75038635   -1.81995684    0.03605572      15
Co    -0.01241335   -1.83103353    1.78097613      16
Cr    -0.08676899   -1.78093113   -1.74284617      17
Ni     0.00000000    0.00000000    0.00000000      18
          18
Lattice="  24.8920   0.0000   0.0000   0.0000  24.8920   0.0000   0.0000   0.0000  24.8920 " ConfE="      -5944.3988" DelE="          0.4728"
Ni    -3.51253621   -0.00555505   -0.00813988       1
Co     0.06354908    3.50846464    0.03092271       2
Co     3.44821761   -0.00781019    0.00616409       3
Cr     0.01259894   -3.56341211    0.02727221       4
Co    -0.05713273   -0.02197968   -3.63075880       5
Cr    -0.04311423   -0.10239677    3.60154989       6
Ni    -0.04290544    1.75762497    1.91815489       7
Ni     1.75850025   -0.07083351   -1.94223815       8
Ni    -1.67127727    1.70723556   -0.02596741       9
Ni    -1.74524150   -0.00976583    1.79991200      10
Co    -0.05679517    1.81629438   -1.94931149      11
Co     1.78628123   -0.07868607    1.94250986      12
Co    -1.75642341   -0.02570585   -1.79844915      13
Co    -1.69927155   -1.76593661    0.00633599      14
Cr     1.66205612   -1.69406277    0.03528777      15
Co     0.00645788   -1.80046141    1.76578733      16
Cr    -0.09847171   -1.69368510   -1.69317553      17
Ni     0.98090621    0.94522815   -0.01826552      18
          18
Lattice="  24.8920   0.0000   0.0000   0.0000  24.8920   0.0000   0.0000   0.0000  24.8920 " ConfE="      -5945.0443" DelE="         -0.1728"
Ni    -3.53906480   -0.01933375   -0.00971604       1
Co     0.01646828    3.57323949    0.02834842       2
Co     3.51638734   -0.03900850    0.00779161       3
Cr    -0.01342156   -3.59390992    0.03095489       4
Co    -0.05837508   -0.01998594   -3.60082312       5
Cr    -0.04053413   -0.07399214    3.57372199       6
Ni    -0.01797448    1.71926855    1.77218758       7
Ni     1.65586156   -0.05231299   -1.73532079       8
Ni    -1.74379085    1.72734281   -0.02374363       9
Ni    -1.75542324   -0.01576531    1.78276243      10
Co    -0.04575742    1.76846464   -1.81689605      11
Co     1.71229746   -0.06254695    1.74721515      12
Co    -1.77753635   -0.03872017   -1.78847327      13
Co    -1.73243213   -1.78729907    0.00886562      14
Cr     1.65042200   -1.74998409    0.05334716      15
Co    -0.01504941   -1.81840043    1.75723353      16
Cr    -0.14578823   -1.73600703   -1.69594290      17
Ni     1.68897533    1.70375287   -0.02199001      18
