          18
Lattice="  24.8920   0.0000   0.0000   0.0000  24.8920   0.0000   0.0000   0.0000  24.8920 " ConfE="      -5926.3472" DelE="          0.0000"
Ni     0.05940149    3.59887092    0.14133974       1
Cr    -3.40717208    0.03277893   -0.00369652       2
Cr    -0.04999233    0.02995835   -3.20647860       3
Cr     3.71028056    0.02552935    0.15237824       4
Co     0.09753512   -0.00202235    3.64351010       5
Co     0.10333819   -3.56068790    0.12325133       6
Ni    -1.70191715    1.80978033    0.15690799       7
Co     0.03471732    1.76228053   -1.62330954       8
Cr     0.13531160   -1.81228278   -1.64253743       9
Cr    -1.71831513   -1.78144578   -0.06742000      10
Ni     1.86701585   -0.00448015    1.88589265      11
Ni     1.90103553   -1.78067365    0.14571947      12
Cr     0.12478479    1.79494802    1.92668955      13
Cr    -1.70224807   -0.02552873    1.94306733      14
Cr     1.85204299    1.81426758    0.14857384      15
Co     1.91100412    0.00025702   -1.62405550      16
Cr     0.06783728   -1.76261837    1.85720302      17
Cr     0.00000000    0.00000000    0.00000000      18
          18
Lattice="  24.8920   0.0000   0.0000   0.0000  24.8920   0.0000   0.0000   0.0000  24.8920 " ConfE="      -5925.8141" DelE="          0.5330"
Ni     0.06206426    3.64955887    0.15710747       1
Cr    -3.49058644    0.06692719    0.15325464       2
Cr     0.07268539    0.04402056   -3.36598910       3
Cr     3.66567131    0.02351915    0.11196216       4
Co     0.09719532   -0.00405595    3.64969379       5
Co     0.12221734   -3.66985722    0.14339967       6
Ni    -1.70968776    1.91718026    0.22933097       7
Co     0.07442035    1.91835433   -1.64472967       8
Cr     0.26466340   -1.94869137   -1.59950013       9
Cr    -1.68167827   -1.97307547    0.01048191      10
Ni     1.85708894   -0.01109603    1.86548317      11
Ni     1.89004817   -1.80599166    0.15673643      12
Cr     0.11936684    1.70622122    1.83877861      13
Cr    -1.65181945   -0.02643389    1.90500683      14
Cr     1.76694897    1.77092215    0.11007816      15
Co     1.77724615    0.01702650   -1.58629273      16
Cr     0.04500883   -1.70087722    1.73877025      17
Cr    -0.84354148   -0.00695036   -0.86309591      18
          18
Lattice="  24.8920   0.0000   0.0000   0.0000  24.8920   0.0000   0.0000   0.0000  24.8920 " ConfE="      -5926.3472" DelE="          0.0000"
Ni     0.06819915    3.60643986    0.15375696       1
Cr    -3.53926990    0.04306586    0.13708257       2
Cr     0.07500792    0.01213154   -3.40080512       3
Cr     3.70356795    0.02769421    0.15534681       4
Co     0.11380123    0.00727918    3.68984296       5
Co     0.11085491   -3.58476276    0.13849586       6
Ni    -1.66705940    1.78791699    0.20540872       7
Co     0.07075960    1.71649558   -1.57374967       8
Cr     0.10493406   -1.71416562   -1.52644382       9
Cr    -1.68434267   -1.76866386    0.14193213      10
Ni     1.88611048    0.00140765    1.91159413      11
Ni     1.89469553   -1.76117748    0.17289306      12
Cr     0.14701474    1.73658370    1.89546674      13
Cr    -1.63478038   -0.01902600    1.91794565      14
Cr     1.83649813    1.78360320    0.15281550      15
Co     1.83598271   -0.00659706   -1.58249406      16
Cr     0.09105975   -1.71604054    1.84015221      17
Cr    -1.66923792    0.03981171   -1.58187227      18
