          18
Lattice="  24.8920   0.0000   0.0000   0.0000  24.8920   0.0000   0.0000   0.0000  24.8920 " ConfE="      -5937.9360" DelE="          0.0000"
Ni    -0.06332126   -3.49877608    0.06547520       1
Cr    -0.03805109    0.03761283   -3.51008598       2
Ni    -0.05900529    3.61171136    0.04716025       3
Co    -0.07381443    0.04456812    3.62370178       4
Ni    -3.56087300    0.05641172    0.07683884       5
Ni     3.42959963    0.01251050    0.04712957       6
Ni    -1.79995013   -1.70701192    0.05442771       7
Cr     1.61483295   -1.68740984   -0.01031500       8
Ni    -1.75978622    0.04267897   -1.70293762       9
Cr     1.62649082    0.05548368   -1.70592788      10
Ni    -0.05486377   -1.72556236    1.87762150      11
Ni    -0.06378352    1.86440418   -1.73036616      12
Co    -0.08278586    1.79553623    1.81575870      13
Cr    -1.74464740    0.07335860    1.85573637      14
Co     1.69578563    0.04789630    1.85857164      15
Cr    -1.78960514    1.81243795    0.12773180      16
Co     1.70079923    1.82506379    0.04474205      17
Co     0.00000000    0.00000000    0.00000000      18
          18
Lattice="  24.8920   0.0000   0.0000   0.0000  24.8920   0.0000   0.0000   0.0000  24.8920 " ConfE="      -5937.2170" DelE="          0.7190"
Ni    -0.06245194   -3.47539788    0.05949621       1
Cr    -0.05910571   -0.02482675   -3.45442808       2
Ni    -0.06289288    3.60376921    0.03202845       3
Co    -0.06964423    0.03295720    3.61186924       4
Ni    -3.62907741    0.06119753    0.08964419       5
Ni     3.48095789    0.02731301    0.05047648       6
Ni    -1.89536060   -1.71691017    0.07007203       7
Cr     1.80088121   -1.75066839    0.11195343       8
Ni    -1.92553001    0.09970758   -1.69889899       9
Cr     1.84728951    0.15652216   -1.80702751      10
Ni    -0.06276686   -1.68809238    1.79702661      11
Ni    -0.06775468    1.79282928   -1.72301993      12
Co    -0.09778448    1.74988770    1.76592096      13
Cr    -1.74262015    0.07275788    1.79954813      14
Co     1.68897240    0.04505918    1.82268911      15
Cr    -1.77258344    1.77100872    0.11955568      16
Co     1.66883722    1.75309240    0.02376127      17
Co     0.08202833   -0.68618055   -0.78182723      18
          18
Lattice="  24.8920   0.0000   0.0000   0.0000  24.8920   0.0000   0.0000   0.0000  24.8920 " ConfE="      -5938.0692" DelE="         -0.1332"
Ni    -0.06352115   -3.52466070    0.09249130       1
Cr    -0.03186601    0.05688235   -3.54667020       2
Ni    -0.05458822    3.61939965    0.04893801       3
Co    -0.07404860    0.04168931    3.64100333       4
Ni    -3.58751597    0.06366455    0.08981092       5
Ni     3.46351481    0.01803753    0.04966606       6
Ni    -1.78989068   -1.66765354    0.09757390       7
Cr     1.64312275   -1.64694516    0.05706977       8
Ni    -1.75148379    0.08143775   -1.64169444       9
Cr     1.65208360    0.08228016   -1.68398171      10
Ni    -0.05273518   -1.69715324    1.85084969      11
Ni    -0.05498789    1.82522831   -1.70907671      12
Co    -0.10671197    1.76391618    1.78727857      13
Cr    -1.74057984    0.09662661    1.85362215      14
Co     1.67185219    0.05296496    1.82287193      15
Cr    -1.77917336    1.80563099    0.15117745      16
Co     1.67078826    1.77464572    0.04083403      17
Co    -0.00835985   -1.68510520   -1.66109702      18
