          18
Lattice="  24.8920   0.0000   0.0000   0.0000  24.8920   0.0000   0.0000   0.0000  24.8920 " ConfE="      -5948.7184" DelE="          0.0000"
Cr     3.50896572    0.04689922    0.01149920       1
Ni    -0.04139808   -0.01905246    3.49305228       2
Co    -3.59339363    0.02678952   -0.04098599       3
Cr    -0.08818850    0.09339458   -3.60041200       4
Ni    -0.03125853   -3.52543417   -0.04919156       5
Co    -0.04462696    3.53358568   -0.04621599       6
Cr     1.80170423   -1.70125641   -0.06676338       7
Cr     1.73934891    1.71232608    0.00648842       8
Ni     0.01907421   -1.76760226    1.73670690       9
Cr    -0.06836227    1.77707796    1.74919670      10
Ni     1.72937145    0.02152027   -1.85379893      11
Ni    -1.84089772   -0.02037469    1.73638571      12
Cr    -1.84388156    0.07290921   -1.80417385      13
Ni    -0.06368708   -1.72890274   -1.85708401      14
Co    -0.05988008    1.78661570   -1.78701052      15
Ni    -1.81410323   -1.76502521   -0.05872357      16
Cr    -1.78729835    1.78082567   -0.01744264      17
Ni     0.00000000    0.00000000    0.00000000      18
          18
Lattice="  24.8920   0.0000   0.0000   0.0000  24.8920   0.0000   0.0000   0.0000  24.8920 " ConfE="      -5948.2017" DelE="          0.5166"
Cr     3.41125279    0.07162375    0.02226632       1
Ni    -0.03933409   -0.03039911    3.49153877       2
Co    -3.59099081    0.02465485   -0.02546135       3
Cr    -0.06671722    0.07407668   -3.61738430       4
Ni    -0.04207156   -3.57927133   -0.05968949       5
Co    -0.04725107    3.57102123   -0.04089056       6
Cr     1.80593314   -1.85176354   -0.11144841       7
Cr     1.77739856    1.95148789   -0.06361307       8
Ni    -0.02668459   -1.87863921    1.75354941       9
Cr    -0.19117985    1.89739594    1.84218043      10
Ni     1.69376178    0.02142025   -1.79207396      11
Ni    -1.77672870   -0.03873816    1.70693491      12
Cr    -1.78624728    0.04917882   -1.76832880      13
Ni    -0.05889416   -1.74175404   -1.84614419      14
Co    -0.05452753    1.75301392   -1.73395594      15
Ni    -1.79519378   -1.77280290   -0.06575717      16
Cr    -1.67073542    1.70698780   -0.03253556      17
Ni     0.62399253    0.09263159    0.58127512      18
          18
Lattice="  24.8920   0.0000   0.0000   0.0000  24.8920   0.0000   0.0000   0.0000  24.8920 " ConfE="      -5948.8519" DelE="         -0.1335"
Cr     3.55417098    0.06303420   -0.01761369       1
Ni    -0.06000449   -0.00991067    3.52863625       2
Co    -3.61120849    0.02574814   -0.03764334       3
Cr    -0.08699115    0.07080265   -3.63526902       4
Ni    -0.03846827   -3.54195228   -0.05935142       5
Co    -0.05832988    3.58438129   -0.05797946       6
Cr     1.76093998   -1.69380848   -0.10554277       7
Cr     1.59597647    1.70499637   -0.04421981       8
Ni    -0.02412298   -1.77686679    1.69926061       9
Cr    -0.13701087    1.77755422    1.71332125      10
Ni     1.70449476    0.01744855   -1.81140644      11
Ni    -1.80494531   -0.02350656    1.70664389      12
Cr    -1.83956390    0.04979800   -1.80969160      13
Ni    -0.06872524   -1.70505768   -1.83942886      14
Co    -0.07596815    1.73909259   -1.74507378      15
Ni    -1.79615049   -1.73941261   -0.07591385      16
Cr    -1.70274947    1.70953103   -0.06292564      17
Ni     1.68295169    0.00262100    1.70249041      18
