          18
Lattice="  24.8920   0.0000   0.0000   0.0000  24.8920   0.0000   0.0000   0.0000  24.8920 " ConfE="      -5950.2378" DelE="          0.0000"
Ni    -0.04666838   -0.00051413   -3.53017090       1
Co     3.58807701   -0.04530892    0.02990256       2
Co    -0.00243878    0.00032114    3.59855807       3
Co    -3.57728358    0.01114991    0.04056742       4
Co    -0.00727642   -3.51644352    0.03874545       5
Co    -0.07406011    3.57271298   -0.00632307       6
Ni    -0.01384952   -1.71639495   -1.74763331       7
Ni    -0.02092088    1.75188046   -1.74466612       8
Ni     1.78150472   -1.74271523    0.00052187       9
Ni     1.76958212    1.72287330    0.00154858      10
Co    -1.85259874    0.01159373   -1.74536138      11
Ni     1.78096234   -0.01363207    1.82581059      12
Ni    -1.77917367    0.00502309    1.78268091      13
Cr    -1.81105630   -1.76055832    0.05453520      14
Co    -1.82045919    1.79999484    0.02904302      15
Co     0.00914766   -1.78501162    1.81463080      16
Ni    -0.00142358    1.77549766    1.79473914      17
Ni     0.00000000    0.00000000    0.00000000      18
          18
Lattice="  24.8920   0.0000   0.0000   0.0000  24.8920   0.0000   0.0000   0.0000  24.8920 " ConfE="      -5949.3805" DelE="          0.8573"
Ni    -0.02691197   -0.00310371   -3.47305383       1
Co     3.56748638   -0.03820480    0.01149452       2
Co     0.00634756   -0.01055800    3.58564221       3
Co    -3.59030677    0.00887647    0.02610716       4
Co    -0.01275477   -3.57616666    0.05724093       5
Co    -0.08157488    3.62548621    0.00426706       6
Ni    -0.07768551   -1.93710637   -1.79804055       7
Ni    -0.08871870    1.92878795   -1.77027254       8
Ni     1.81341815   -1.88318908    0.05532342       9
Ni     1.78366168    1.85879578    0.04437765      10
Co    -1.76242171   -0.02184726   -1.68762645      11
Ni     1.75305316   -0.01983510    1.74281108      12
Ni    -1.73560608   -0.01242424    1.71033740      13
Cr    -1.76395262   -1.74403027    0.02886621      14
Co    -1.80448678    1.78905977    0.00734426      15
Co     0.00828867   -1.78615382    1.76556153      16
Ni     0.00395161    1.75081107    1.73909095      17
Ni     0.89925862   -0.02271886   -0.99044158      18
          18
Lattice="  24.8920   0.0000   0.0000   0.0000  24.8920   0.0000   0.0000   0.0000  24.8920 " ConfE="      -5950.0893" DelE="          0.1486"
Ni    -0.05630116   -0.00015079   -3.54449595       1
Co     3.60944093   -0.03510797    0.04276392       2
Co    -0.00296501   -0.00830669    3.60610164       3
Co    -3.60159352    0.00854213    0.04426325       4
Co    -0.00671649   -3.54618715    0.04006576       5
Co    -0.08110453    3.59764481   -0.00116482       6
Ni    -0.05105374   -1.70880278   -1.69671075       7
Ni    -0.04342807    1.74878472   -1.71121799       8
Ni     1.76140257   -1.75217777    0.03387608       9
Ni     1.72619614    1.73273397    0.03508463      10
Co    -1.81945193    0.00845960   -1.69756562      11
Ni     1.76100579   -0.02077400    1.79501068      12
Ni    -1.76181064   -0.00320936    1.74705074      13
Cr    -1.79479674   -1.74199052    0.06576821      14
Co    -1.81184692    1.78413846    0.03194517      15
Co    -0.01346943   -1.76928450    1.77221169      16
Ni    -0.01209524    1.74606402    1.76784973      17
Ni     1.72805328   -0.00528052   -1.70297707      18
