          18
Lattice="  24.8920   0.0000   0.0000   0.0000  24.8920   0.0000   0.0000   0.0000  24.8920 " ConfE="      -5923.6214" DelE="          0.0000"
Co     0.02831034    0.02940511    3.47403421       1
Co    -0.00872457    3.48817302   -0.03056618       2
Ni    -0.01882260   -0.02739072   -3.57217853       3
Co    -0.01091738   -3.56359467   -0.00084531       4
Ni    -3.56404743   -0.00985761   -0.00239641       5
Cr     3.55928676   -0.03580886   -0.01833806       6
Ni    -1.75234118   -0.00019139    1.76400262       7
Cr     1.64027547    0.11355309    1.79588856       8
Ni    -1.76211626    1.73938206    0.00573876       9
Co     1.71954353    1.73589365    0.03307027      10
Co    -0.00167659   -1.81097631    1.75658527      11
Cr    -0.01799726    1.75344294   -1.82742282      12
Ni    -0.03504100   -1.78265016   -1.79921224      13
Co    -1.80350388   -1.81854946    0.00579757      14
Ni     1.73864833   -1.76960920   -0.00603632      15
Ni    -1.80526446   -0.03645403   -1.80036431      16
Co     1.74328555    0.01434405   -1.76449654      17
Cr     0.00000000    0.00000000    0.00000000      18
          18
Lattice="  24.8920   0.0000   0.0000   0.0000  24.8920   0.0000   0.0000   0.0000  24.8920 " ConfE="      -5922.8258" DelE="          0.7956"
Co     0.02457399    0.03506002    3.43578345       1
Co    -0.01418137    3.43074739   -0.02269759       2
Ni    -0.02525914   -0.02042429   -3.58543414       3
Co    -0.00414415   -3.56392537    0.01280491       4
Ni    -3.62030152   -0.01839760   -0.01197133       5
Cr     3.63872486   -0.06306860   -0.06765391       6
Ni    -1.86511229   -0.03759649    1.77303336       7
Cr     1.84071969    0.02952844    1.87586572       8
Ni    -1.84656682    1.73166498   -0.02087674       9
Co     1.88369475    1.80575621   -0.03649638      10
Co    -0.02052059   -1.75471621    1.74647909      11
Cr     0.00347234    1.72107800   -1.80864137      12
Ni    -0.04309825   -1.72747035   -1.75601174      13
Co    -1.80940996   -1.81223443    0.02051889      14
Ni     1.69455911   -1.66299207    0.02396418      15
Ni    -1.79432681   -0.02353591   -1.76166831      16
Co     1.68151859    0.07259852   -1.70431801      17
Cr     0.12143270    0.67335814    0.74585918      18
          18
Lattice="  24.8920   0.0000   0.0000   0.0000  24.8920   0.0000   0.0000   0.0000  24.8920 " ConfE="      -5923.5550" DelE="          0.0664"
Co     0.00219169    0.01457710    3.55160051       1
Co    -0.00921118    3.53749583   -0.07428745       2
Ni    -0.02069209   -0.02518481   -3.59194095       3
Co    -0.00693895   -3.57752189    0.00304433       4
Ni    -3.59090914   -0.01795197   -0.01474561       5
Cr     3.59084228   -0.04239434   -0.03770405       6
Ni    -1.76046160   -0.01727102    1.73766908       7
Cr     1.67322563   -0.01183775    1.77341028       8
Ni    -1.75261113    1.71111070   -0.02872298       9
Co     1.71489578    1.70399402    0.00439059      10
Co     0.00588880   -1.72083623    1.72620128      11
Cr     0.02182011    1.70447226   -1.77032563      12
Ni    -0.04309122   -1.75295913   -1.78580644      13
Co    -1.81244956   -1.83909321    0.00626380      14
Ni     1.71754974   -1.72990487   -0.02646541      15
Ni    -1.78733722   -0.04097431   -1.78417581      16
Co     1.71280432    0.03277855   -1.75600458      17
Cr     0.03709494    1.75888592    1.71114989      18
