          19
Lattice="  24.8920   0.0000   0.0000   0.0000  24.8920   0.0000   0.0000   0.0000  24.8920 " ConfE="      -5946.3430" DelE="          0.0000"
Co     0.03882202    3.60504485   -0.07615590       1
Co    -2.86440210    1.82603631    0.89612676       2
Ni     0.04699048    0.00413183   -3.54147046       3
Cr    -3.51483986   -0.15943493   -0.11145749       4
Cr     3.58379864   -0.02957333   -0.03024542       5
Cr    -0.00979153   -0.00856473    3.42887929       6
Co     0.08492556   -3.61264507   -0.04133765       7
Cr    -0.14122744    1.77583040   -1.62063411       8
Ni    -1.74973350   -0.06393666   -1.77329918       9
Ni     1.81334440    1.76596904   -0.01742582      10
Cr    -0.20505124    1.83259793    1.48094464      11
Co     1.80892789    0.01662773   -1.79515677      12
Cr     0.11057773   -1.79589901   -1.76825725      13
Cr    -1.67033547   -1.90625740   -0.02848929      14
Cr     1.82283655   -0.02869698    1.72435467      15
Cr    -1.83947011   -0.12906996    1.72102076      16
Co     1.81942427   -1.79988756   -0.04486354      17
Co     0.06121579   -1.82415073    1.73086710      18
Co     0.00000000    0.00000000    0.00000000      19
          19
Lattice="  24.8920   0.0000   0.0000   0.0000  24.8920   0.0000   0.0000   0.0000  24.8920 " ConfE="      -5945.6252" DelE="          0.7178"
Co     0.00689570    3.50041245   -0.07081122       1
Co    -3.00694356    1.84484317    1.10449733       2
Ni     0.05931749   -0.02982912   -3.63423398       3
Cr    -3.45646616   -0.10495596   -0.06885980       4
Cr     3.59498453   -0.00872556   -0.02172257       5
Cr    -0.00168445   -0.02616403    3.51988407       6
Co     0.07288058   -3.58389879   -0.04036915       7
Cr    -0.03124458    1.71143122   -1.86173723       8
Ni    -1.81905737   -0.07196453   -1.93374834       9
Ni     1.72820221    1.70939055   -0.03404979      10
Cr     0.03902851    1.83596123    1.82408063      11
Co     1.82157227   -0.01236964   -1.82010259      12
Cr     0.08774966   -1.63033745   -1.68605414      13
Cr    -1.64373784   -1.79914443   -0.01923565      14
Cr     1.73660936   -0.03112768    1.68105022      15
Cr    -1.89642150   -0.13643635    1.87831998      16
Co     1.79237976   -1.75455450   -0.04010975      17
Co     0.04334102   -1.74986473    1.71590359      18
Co    -0.78340145    0.69234435    0.06367810      19
          19
Lattice="  24.8920   0.0000   0.0000   0.0000  24.8920   0.0000   0.0000   0.0000  24.8920 " ConfE="      -5946.8796" DelE="         -0.5366"
Co     0.04510606    3.56517763   -0.07999034       1
Co    -3.48597537    1.78127552    1.70833565       2
Ni     0.06330630   -0.01363670   -3.60273218       3
Cr    -3.52868911   -0.04103311    0.01827847       4
Cr     3.62712280   -0.03472435   -0.02626719       5
Cr     0.03551132   -0.01649052    3.53643390       6
Co     0.07581577   -3.59317645   -0.04378278       7
Cr     0.02441018    1.68975558   -1.72359605       8
Ni    -1.74142364   -0.04410809   -1.80069691       9
Ni     1.80496715    1.72408002   -0.03710086      10
Cr     0.03284776    1.72697585    1.61868928      11
Co     1.82057676   -0.02162225   -1.79713039      12
Cr     0.10793269   -1.68082608   -1.70168479      13
Cr    -1.65770429   -1.77924767   -0.02470703      14
Cr     1.75617373   -0.05147157    1.68039867      15
Cr    -1.65928323   -0.05889373    1.71535202      16
Co     1.81637936   -1.77567026   -0.04686757      17
Co     0.07148130   -1.76653724    1.69889426      18
Co    -1.72597916    1.69865295   -0.03072463      19
