          18
Lattice="  24.8920   0.0000   0.0000   0.0000  24.8920   0.0000   0.0000   0.0000  24.8920 " ConfE="      -5943.1635" DelE="          0.0000"
Ni     0.00541268    0.04930323   -3.50854448       1
Cr     3.46757415    0.05867715    0.01588744       2
Cr    -0.06055878    0.00653016    3.56459764       3
Cr    -3.57808189   -0.00538749    0.04639082       4
Ni    -0.04218725   -3.54728692   -0.00634676       5
Cr    -0.01469785    3.50360793    0.00655610       6
Cr    -0.05606975   -1.70948708   -1.75349239       7
Ni    -0.00483160    1.76773835   -1.75674699       8
Cr     1.70901876   -1.69748544    0.01104956       9
Co     1.76473347    1.70441292    0.01750435      10
Co    -1.86468287    0.01183373   -1.76969716      11
Cr     1.71604138    0.02607034    1.83922426      12
Co    -1.80509331   -0.01031525    1.80637981      13
Ni    -1.83420920   -1.77065649   -0.00649108      14
Co    -1.82156267    1.76558294    0.01678556      15
Ni    -0.05281230   -1.79165014    1.78768307      16
Cr    -0.10160106    1.77192760    1.75536870      17
Co     0.00000000    0.00000000    0.00000000      18
          18
Lattice="  24.8920   0.0000   0.0000   0.0000  24.8920   0.0000   0.0000   0.0000  24.8920 " ConfE="      -5942.6804" DelE="          0.4831"
Ni    -0.00945909    0.04183091   -3.50045583       1
Cr     3.54719219    0.05189082    0.02865741       2
Cr    -0.04517628   -0.00458723    3.55609385       3
Cr    -3.60624949   -0.01097325    0.03852576       4
Ni    -0.07338745   -3.56930990   -0.00616037       5
Cr    -0.03946320    3.58366180    0.01992573       6
Cr    -0.16550958   -1.80698298   -1.80198630       7
Ni    -0.03698631    1.78899136   -1.73128882       8
Cr     1.79874829   -1.96532331    0.12993699       9
Co     1.73783789    1.82841597    0.05018028      10
Co    -1.84738686    0.00649492   -1.75246965      11
Cr     1.67876274    0.01826917    1.67503911      12
Co    -1.78589432   -0.00008611    1.77872096      13
Ni    -1.81910545   -1.74891811   -0.01472684      14
Co    -1.80443962    1.74850846    0.01607310      15
Ni    -0.05324921   -1.75720135    1.72944806      16
Cr    -0.09283136    1.70348232    1.64250688      17
Co     1.24939808   -0.20644743   -1.09847679      18
          18
Lattice="  24.8920   0.0000   0.0000   0.0000  24.8920   0.0000   0.0000   0.0000  24.8920 " ConfE="      -5942.9102" DelE="          0.2533"
Ni    -0.02089760    0.04154380   -3.54963028       1
Cr     3.55066408    0.04494853    0.03086911       2
Cr    -0.05727093   -0.00126950    3.58477876       3
Cr    -3.60631772   -0.01030990    0.04407273       4
Ni    -0.04432277   -3.55473313   -0.00813228       5
Cr    -0.03240953    3.54706088    0.02032718       6
Cr    -0.07789478   -1.69940311   -1.74294334       7
Ni    -0.03643089    1.75645678   -1.72875732       8
Cr     1.70863304   -1.69810360    0.01158227       9
Co     1.71142804    1.70796043    0.05874254      10
Co    -1.82834474   -0.00149860   -1.75582189      11
Cr     1.68807564    0.04939759    1.75702607      12
Co    -1.78928555    0.00313019    1.79230388      13
Ni    -1.81767964   -1.74570009   -0.01033586      14
Co    -1.80320656    1.73941870    0.02581665      15
Ni    -0.04567627   -1.73605586    1.73422078      16
Cr    -0.13130272    1.73781816    1.71938658      17
Co     1.70535191   -0.04354324   -1.67261182      18
