          18
Lattice="  24.8920   0.0000   0.0000   0.0000  24.8920   0.0000   0.0000   0.0000  24.8920 " ConfE="      -5923.8292" DelE="          0.0000"
Ni    -0.00892043   -0.02527440    3.48175190       1
Ni     0.01736753    3.54018427   -0.01328150       2
Ni    -0.01373090   -0.08336379   -3.58024949       3
Ni     0.02295869   -3.62492006   -0.03176901       4
Co    -3.52841039   -0.06443438   -0.03390863       5
Ni     3.49463932   -0.02755358   -0.01110885       6
Cr    -1.71929257   -0.00662242    1.70384831       7
Co     1.74807093   -0.00711413    1.75180267       8
Cr    -1.62414058    1.71676031   -0.03909408       9
Cr     1.65317478    1.73283423    0.05820193      10
Cr    -0.00414500   -1.84356157    1.74672469      11
Co     0.00976832    1.74421364   -1.82483098      12
Co    -0.06031133   -1.82262404   -1.74921166      13
Cr    -1.73703668   -1.80876379   -0.07661619      14
Ni     1.75190105   -1.82987879    0.00296556      15
Co    -1.78561836   -0.04907857   -1.79587584      16
Ni     1.75117283   -0.03691134   -1.81330206      17
Co     0.00000000    0.00000000    0.00000000      18
          18
Lattice="  24.8920   0.0000   0.0000   0.0000  24.8920   0.0000   0.0000   0.0000  24.8920 " ConfE="      -5922.8302" DelE="          0.9990"
Ni    -0.00112964   -0.01355902    3.42790506       1
Ni     0.02325951    3.45460776   -0.00629994       2
Ni    -0.00597716   -0.10083330   -3.51871681       3
Ni     0.02604976   -3.56691545   -0.04635064       4
Co    -3.64537042   -0.06561784   -0.05606295       5
Ni     3.59863541   -0.03735243   -0.00767894       6
Cr    -1.86437495   -0.04334787    1.69395365       7
Co     1.93391894   -0.04769827    1.79313444       8
Cr    -1.86660803    1.71972087   -0.13054527       9
Cr     1.92690912    1.78246813   -0.05587051      10
Cr     0.00924973   -1.72827068    1.62303999      11
Co     0.00680690    1.67752169   -1.75790024      12
Co    -0.10328573   -1.22265607   -1.09720012      13
Cr    -1.90533118   -1.79426646   -0.02041307      14
Ni     1.88067052   -1.83950202    0.04883759      15
Co    -1.92344837    0.01828422   -1.82293860      16
Ni     1.85086904   -0.01152327   -1.79359843      17
Co     0.03024996    0.75751990    0.69292827      18
          18
Lattice="  24.8920   0.0000   0.0000   0.0000  24.8920   0.0000   0.0000   0.0000  24.8920 " ConfE="      -5924.3763" DelE="         -0.5471"
Ni    -0.00656628   -0.04535490    3.51804806       1
Ni     0.01081989    3.54269107   -0.03967548       2
Ni    -0.01312872   -0.11779059   -3.57102527       3
Ni     0.01801489   -3.55814783   -0.06032446       4
Co    -3.54590697   -0.08745022   -0.04790468       5
Ni     3.50392495   -0.04275791   -0.02387106       6
Cr    -1.75245110   -0.04544099    1.71797338       7
Co     1.76978640   -0.04795618    1.75459896       8
Cr    -1.64151977    1.63365948   -0.10835551       9
Cr     1.69340200    1.71308260   -0.03164801      10
Cr     0.01580753   -1.82155435    1.78049641      11
Co     0.00717554    1.73799019   -1.81644461      12
Co    -0.00238278   -0.10205341   -0.06518120      13
Cr    -1.72803717   -1.76923625   -0.08952082      14
Ni     1.75078884   -1.83251128   -0.02301491      15
Co    -1.75974338   -0.13362668   -1.79822568      16
Ni     1.74399053   -0.07106370   -1.83739003      17
Co    -0.00759821    1.74719166    1.73939212      18
