          18
Lattice="  24.8920   0.0000   0.0000   0.0000  24.8920   0.0000   0.0000   0.0000  24.8920 " ConfE="      -5949.7188" DelE="          0.0000"
Co     0.01658956   -3.53284223    0.01414825       1
Co    -3.52274149    0.05203131    0.00680224       2
Cr     0.04015849    3.55751702    0.02638826       3
Co     3.62021600   -0.03108966    0.04146862       4
Ni     0.05344214    0.02918070   -3.51158284       5
Co     0.01260465   -0.00605770    3.62136014       6
Ni    -0.00029433   -1.76922467   -1.69849878       7
Co     0.02095634   -1.77280135    1.75528046       8
Co    -1.75994853    0.02959309   -1.72934776       9
Ni    -1.73693614   -0.04448438    1.77757282      10
Cr     1.80599609   -1.65903077    0.11003977      11
Co    -1.74042037    1.80469278    0.06862727      12
Ni     1.82420512    1.74336523    0.04777255      13
Ni     1.81621083    0.01472133   -1.75402978      14
Co     1.78853869   -0.07602813    1.78052514      15
Cr     0.01579978    1.78235027   -1.66370997      16
Ni     0.06599137    1.74210382    1.81044129      17
Co     0.00000000    0.00000000    0.00000000      18
          18
Lattice="  24.8920   0.0000   0.0000   0.0000  24.8920   0.0000   0.0000   0.0000  24.8920 " ConfE="      -5948.9935" DelE="          0.7253"
Co    -0.02056859   -3.46400843    0.01015528       1
Co    -3.46183681    0.02610378    0.01697206       2
Cr     0.01897598    3.55858239    0.02857068       3
Co     3.60623092   -0.04328344    0.03979746       4
Ni     0.06768719    0.04292371   -3.56688804       5
Co     0.03396310   -0.00508939    3.69737598       6
Ni     0.07225822   -1.81089714   -1.87423363       7
Co     0.03715428   -1.78473170    1.91242321       8
Co    -1.76801125    0.10319490   -1.89794502       9
Ni    -1.75410461    0.03413647    1.96827236      10
Cr     1.66864896   -1.62643533    0.11154056      11
Co    -1.65928836    1.67763729    0.05031652      12
Ni     1.77368243    1.70401121    0.04171297      13
Ni     1.76279125    0.00615975   -1.73883278      14
Co     1.75276752   -0.09413942    1.77082721      15
Cr    -0.01529967    1.74843658   -1.64486873      16
Ni     0.07102904    1.70123475    1.80163490      17
Co    -0.96862221   -0.94613154   -0.00589447      18
          18
Lattice="  24.8920   0.0000   0.0000   0.0000  24.8920   0.0000   0.0000   0.0000  24.8920 " ConfE="      -5949.7041" DelE="          0.0147"
Co     0.04466450   -3.57155345    0.02264915       1
Co    -3.53293016    0.05360926    0.01061182       2
Cr     0.04210291    3.58887621    0.02404775       3
Co     3.63789724   -0.02752587    0.03887306       4
Ni     0.06204275    0.03964624   -3.52960704       5
Co     0.01851181   -0.00283816    3.64097593       6
Ni     0.04592381   -1.73279286   -1.69193613       7
Co     0.05681253   -1.74377412    1.75784702       8
Co    -1.70379310    0.05963172   -1.71886717       9
Ni    -1.70977060   -0.01338998    1.79469342      10
Cr     1.74591660   -1.64567623    0.13209326      11
Co    -1.68704147    1.75358556    0.04880855      12
Ni     1.79253033    1.72911382    0.04077073      13
Ni     1.78506765    0.02294844   -1.72166743      14
Co     1.77930217   -0.07577419    1.75529309      15
Cr    -0.00589107    1.77349573   -1.63818698      16
Ni     0.07386999    1.71586004    1.77882552      17
Co    -1.68531317   -1.72951565    0.02796358      18
