          18
Lattice="  24.8920   0.0000   0.0000   0.0000  24.8920   0.0000   0.0000   0.0000  24.8920 " ConfE="      -5946.3638" DelE="          0.0000"
Ni     3.50279319    0.00649721    0.02537349       1
Ni     0.02263238   -3.44902091    0.03220856       2
Co    -3.54825702    0.05667188    0.04683003       3
Ni    -0.01110930    3.61319000   -0.00737449       4
Co     0.01948493    0.04223377   -3.52727414       5
Ni    -0.02597547    0.06322988    3.54148591       6
Cr     1.80933735    0.03359717   -1.77709953       7
Ni     1.72770662    0.03787556    1.77011573       8
Cr     0.04772433   -1.67117519   -1.75042527       9
Cr     0.00557560   -1.70753593    1.73920876      10
Ni     1.75949944    1.84136783    0.02027072      11
Ni    -1.81766275   -1.73273861    0.02080225      12
Co    -1.75008592    1.80816986    0.04275154      13
Cr    -0.01608897    1.74602016   -1.77658205      14
Cr    -0.01678820    1.95263034    1.87295582      15
Co    -1.75972297    0.05229636   -1.74247226      16
Cr    -1.76990159    0.09772714    1.74531406      17
Cr     0.00000000    0.00000000    0.00000000      18
          18
Lattice="  24.8920   0.0000   0.0000   0.0000  24.8920   0.0000   0.0000   0.0000  24.8920 " ConfE="      -5945.7427" DelE="          0.6211"
Ni     3.49084633    0.00089126    0.02807221       1
Ni     0.01557133   -3.42671135    0.01975987       2
Co    -3.56453248    0.04246967    0.05511574       3
Ni    -0.00805455    3.60804539   -0.01577563       4
Co     0.02057934    0.07032321   -3.58140605       5
Ni    -0.02535047    0.08589178    3.58781422       6
Cr     1.90001810    0.12561416   -1.93199201       7
Ni     1.74676940    0.08317625    1.86572152       8
Cr    -0.09085180   -1.64165781   -1.96886519       9
Cr    -0.04668977   -1.75256472    1.88495209      10
Ni     1.74138861    1.76317711    0.01968698      11
Ni    -1.71703238   -1.68699218    0.00473976      12
Co    -1.73689923    1.78335068    0.03611740      13
Cr    -0.04635829    1.54566518   -1.59788636      14
Cr    -0.02126553    1.88439143    1.76807096      15
Co    -1.75400791    0.03794008   -1.73595457      16
Cr    -1.58754524    0.08831075    1.63444177      17
Cr     0.93344091   -0.94555351   -0.07099119      18
          18
Lattice="  24.8920   0.0000   0.0000   0.0000  24.8920   0.0000   0.0000   0.0000  24.8920 " ConfE="      -5946.5174" DelE="         -0.1536"
Ni     3.57238714    0.05903792    0.02884814       1
Ni    -0.00996069   -3.47985074    0.03442941       2
Co    -3.60422121    0.05449151    0.05807364       3
Ni    -0.01894783    3.61650528   -0.00464362       4
Co     0.01774634    0.05226049   -3.54950744       5
Ni    -0.03135501    0.07933428    3.55877078       6
Cr     1.81389645    0.07653150   -1.79605041       7
Ni     1.72952097    0.07268330    1.76775302       8
Cr    -0.02311976   -1.50044882   -1.64831333       9
Cr    -0.02133086   -1.60144496    1.69088641      10
Ni     1.74751624    1.79365171    0.00551250      11
Ni    -1.79581041   -1.69470466    0.03278866      12
Co    -1.74520748    1.77892057    0.05480139      13
Cr    -0.06766839    1.64439481   -1.64981750      14
Cr    -0.04705325    1.83136023    1.74062536      15
Co    -1.75825994    0.05867935   -1.72168335      16
Cr    -1.76964676    0.11243525    1.73487886      17
Cr     1.76199070   -1.67887243   -0.00068180      18
