          19
Lattice="  24.8920   0.0000   0.0000   0.0000  24.8920   0.0000   0.0000   0.0000  24.8920 " ConfE="      -5937.8196" DelE="          0.0000"
Cr     1.72787098    3.22554060   -1.56962365       1
Co     3.49437063    0.02398990   -0.06355952       2
Cr    -0.04480867    3.45526922   -0.02559825       3
Co    -0.07331810   -3.57376391    0.04492860       4
Ni    -3.59936578   -0.02888034    0.00776724       5
Ni    -0.02012121   -0.01593306    3.53513728       6
Co    -0.02157251   -0.04748200   -3.54670834       7
Cr     1.75867477    0.12032705    1.57144625       8
Cr     1.68820642    0.08400078   -1.63731419       9
Ni    -0.07161650    1.74863739    1.78156382      10
Cr     1.77835699   -1.83049497    0.05492608      11
Ni    -1.84015222   -0.02360756    1.75058604      12
Co    -1.81568161    1.75436401   -0.03356954      13
Cr    -1.86244671   -1.84852739   -0.02259794      14
Co    -1.80948461   -0.05960150   -1.76758481      15
Ni    -0.03184178   -1.80470276   -1.73334522      16
Ni    -0.06299659   -1.76853788    1.74572406      17
Co    -0.02614106    1.72827241   -1.76075990      18
Co     0.00000000    0.00000000    0.00000000      19
          19
Lattice="  24.8920   0.0000   0.0000   0.0000  24.8920   0.0000   0.0000   0.0000  24.8920 " ConfE="      -5937.4126" DelE="          0.4070"
Cr     1.70639178    3.19173884   -1.59114334       1
Co     3.35865724    0.04170672   -0.06381397       2
Cr    -0.02010794    3.33034878   -0.00368041       3
Co    -0.06589262   -3.56197520    0.04743678       4
Ni    -3.60372585   -0.02290348    0.01009836       5
Ni    -0.04165999   -0.02538719    3.60170954       6
Co    -0.03578607   -0.06255730   -3.61861074       7
Cr     1.81275063    0.05791865    1.83425445       8
Cr     1.76411328    0.07545787   -1.93643998       9
Ni    -0.10288904    1.74652577    1.92283463      10
Cr     1.76441462   -1.79297338    0.05980324      11
Ni    -1.83292878   -0.02264473    1.75625066      12
Co    -1.73026331    1.69981811   -0.03623984      13
Cr    -1.80675658   -1.77913226   -0.04153926      14
Co    -1.77985703   -0.05990587   -1.75567049      15
Ni     0.01400852   -1.72793114   -1.70093635      16
Ni    -0.04857697   -1.70062182    1.71220025      17
Co    -0.07187033    1.74538743   -1.92283866      18
Co     0.63044162    0.54840378   -0.02900741      19
          19
Lattice="  24.8920   0.0000   0.0000   0.0000  24.8920   0.0000   0.0000   0.0000  24.8920 " ConfE="      -5937.8692" DelE="         -0.0496"
Cr     1.76212646    3.44797403   -1.74451752       1
Co     3.52363084    0.00413342   -0.04208705       2
Cr    -0.02303758    3.47898643   -0.03128858       3
Co    -0.06903819   -3.56978252    0.04536503       4
Ni    -3.58795411   -0.02750350    0.00781967       5
Ni    -0.03351647   -0.01476473    3.55545025       6
Co    -0.02518126   -0.04757011   -3.55675795       7
Cr     1.78365106    0.02961660    1.70104601       8
Cr     1.70798361    0.00470221   -1.75219326       9
Ni    -0.08204989    1.74754137    1.80164976      10
Cr     1.77298134   -1.79431026    0.03616258      11
Ni    -1.84022775   -0.02837351    1.75945080      12
Co    -1.78405072    1.75742989   -0.03475983      13
Cr    -1.86324129   -1.85978784   -0.02017876      14
Co    -1.80330555   -0.05770774   -1.77607349      15
Ni    -0.04249499   -1.82094855   -1.75184266      16
Ni    -0.06853586   -1.78276377    1.75881464      17
Co    -0.00198261    1.74328852   -1.77168086      18
Co    -0.02667893   -0.03328391   -0.00188973      19
