          23
Lattice="  24.8920   0.0000   0.0000   0.0000  24.8920   0.0000   0.0000   0.0000  24.8920 " ConfE="      -5923.1949" DelE="          0.0000"
Ni     2.63748308   -2.52987533    0.04402667       1
Ni     0.89497782   -2.56365393   -1.72902200       2
Ni     2.63652428   -0.81257158    1.81536111       3
Ni    -2.62601570    0.94065163   -1.71249811       4
Ni    -0.87606974    0.94737043    3.66450473       5
Ni    -0.86514502    2.67726919    1.81304725       6
Ni    -2.62619866    0.93402602    1.82161250       7
Co    -2.58886268    2.67084575    0.05317422       8
Co    -0.88748532    0.97101902   -3.55655455       9
Co     0.90644772   -0.81093553   -3.53161457      10
Co     2.66106685   -0.78062481   -1.73569766      11
Co     0.89581498   -2.57161192    1.82915041      12
Co    -0.84053660    2.68825324   -1.70580261      13
Co     0.92777131   -0.83955204    3.66170932      14
Co     2.62789570    0.95114678    0.05297090      15
Co    -0.84809591   -2.52233762    0.06362054      16
Cr     0.82437894    2.61340882    0.00267167      17
Co    -2.57614374   -0.79636536    0.03482428      18
Ni     0.96607349    0.97473407   -1.87264317      19
Ni     0.00000000    0.00000000    0.00000000      20
Ni     0.91986016    0.96089337    1.95518967      21
Cr    -0.87316835   -0.87866858   -1.94681140      22
Co    -0.92692975   -0.91070421    1.99069347      23
          23
Lattice="  24.8920   0.0000   0.0000   0.0000  24.8920   0.0000   0.0000   0.0000  24.8920 " ConfE="      -5923.1598" DelE="          0.0351"
Ni     2.65935766   -2.54495788    0.04664355       1
Ni     0.90161994   -2.55192180   -1.71297397       2
Ni     2.61877589   -0.80623849    1.79055350       3
Ni    -2.59844367    0.92356259   -1.68813498       4
Ni    -0.87365295    0.94979156    3.64918668       5
Ni    -0.87170548    2.69804580    1.82299852       6
Ni    -2.63299617    0.93347886    1.81914509       7
Co    -2.59228455    2.67501943    0.05769365       8
Co    -0.87869071    0.95941991   -3.54303563       9
Co     0.91296617   -0.81548567   -3.53154532      10
Co     2.67111852   -0.78682002   -1.73112599      11
Co     0.89386336   -2.56524053    1.82208739      12
Co    -0.83501680    2.68745809   -1.70159588      13
Co     0.92940728   -0.82420122    3.65492376      14
Co     2.64421835    0.95951657    0.04730510      15
Co    -0.84532029   -2.50710048    0.05846973      16
Cr     0.83371714    2.65100236    0.00120887      17
Co    -2.62256347   -0.82869370    0.03852182      18
Ni     0.98107471    0.95561339   -1.84662809      19
Ni    -0.28651934    0.20313389   -0.04374549      20
Ni     0.90180343    0.94753715    1.89291459      21
Cr    -0.86131352   -0.91576651   -1.96402906      22
Co    -0.92031959   -0.91250229    1.97348657      23
          23
Lattice="  24.8920   0.0000   0.0000   0.0000  24.8920   0.0000   0.0000   0.0000  24.8920 " ConfE="      -5923.5668" DelE="         -0.3719"
Ni     2.65564323   -2.55306434    0.04922021       1
Ni     0.89544572   -2.55408638   -1.70259917       2
Ni     2.63287047   -0.81874977    1.79334890       3
Ni    -2.65827727    0.94400866   -1.71263619       4
Ni    -0.85777199    0.94768709    3.60539350       5
Ni    -0.87091682    2.71562876    1.81755536       6
Ni    -2.65280965    0.95215902    1.82657494       7
Co    -2.64048560    2.72027492    0.05030985       8
Co    -0.88007303    0.95181401   -3.50799669       9
Co     0.89513658   -0.79614072   -3.51080721      10
Co     2.66661802   -0.77690718   -1.72215506      11
Co     0.89807162   -2.58433830    1.82998229      12
Co    -0.86593134    2.72923970   -1.72981067      13
Co     0.92399567   -0.81870731    3.62891599      14
Co     2.67188800    0.96560537    0.05819655      15
Co    -0.85500256   -2.52544156    0.06241016      16
Cr     0.90796430    2.76006812    0.02100253      17
Co    -2.67572897   -0.84070033    0.04727570      18
Ni     0.89812472    0.90992022   -1.68947193      19
Ni    -0.85786527    0.89152104    0.03652223      20
Ni     0.89369080    0.92516252    1.79337863      21
Cr    -0.84768641   -0.86485355   -1.73397629      22
Co    -0.88061316   -0.87648004    1.82314038      23
