          18
Lattice="  24.8920   0.0000   0.0000   0.0000  24.8920   0.0000   0.0000   0.0000  24.8920 " ConfE="      -5935.2449" DelE="          0.0000"
Co    -0.03606685   -0.01116564    3.54375230       1
Co     0.02859508    3.48602843    0.00278144       2
Co    -0.00835366   -0.06764412   -3.57998013       3
Co    -0.05009585   -3.62342149   -0.02459979       4
Ni     3.50251235   -0.03063026   -0.02525593       5
Co    -3.58908302   -0.01984292   -0.01360813       6
Co     1.69023091    0.04461935    1.73073117       7
Co    -1.77931228    0.01449516    1.72220345       8
Cr     1.61097462    1.71689220    0.13145646       9
Cr    -1.62489310    1.69011711    0.14116341      10
Ni    -0.01930258   -1.81446753    1.75679695      11
Ni    -0.02617886    1.70956761   -1.81060629      12
Co    -0.01938556   -1.81064843   -1.78557930      13
Co     1.74049966   -1.80504417   -0.04338354      14
Ni    -1.78503085   -1.80059083   -0.00914895      15
Cr     1.75628308   -0.06318243   -1.79490832      16
Ni    -1.79410249   -0.02816357   -1.77318076      17
Co     0.00000000    0.00000000    0.00000000      18
          18
Lattice="  24.8920   0.0000   0.0000   0.0000  24.8920   0.0000   0.0000   0.0000  24.8920 " ConfE="      -5934.6908" DelE="          0.5541"
Co    -0.03257189    0.02096696    3.48481686       1
Co     0.01786398    3.43967000    0.02430376       2
Co    -0.00706021   -0.06663585   -3.56662597       3
Co    -0.05838128   -3.61884214   -0.01508292       4
Ni     3.58376997   -0.07310847   -0.01851153       5
Co    -3.67189099   -0.04817166   -0.00221675       6
Co     1.84785348   -0.01406632    1.76674832       7
Co    -1.89272876   -0.02482344    1.74324501       8
Cr     1.92503627    1.77927861   -0.05754489       9
Cr    -1.92571371    1.74434122    0.01736953      10
Ni    -0.01300634   -1.74885790    1.73213132      11
Ni    -0.03708911    1.68227681   -1.74118328      12
Co    -0.02351271   -1.77111624   -1.73837798      13
Co     1.73680678   -1.77310884   -0.03358045      14
Ni    -1.78426711   -1.77524595    0.00509322      15
Cr     1.68497531   -0.11626132   -1.64764571      16
Ni    -1.79621967   -0.02521030   -1.73427957      17
Co     0.01367351    0.88074586    0.70259678      18
          18
Lattice="  24.8920   0.0000   0.0000   0.0000  24.8920   0.0000   0.0000   0.0000  24.8920 " ConfE="      -5935.4006" DelE="         -0.1556"
Co    -0.03310921   -0.03091468    3.56745088       1
Co     0.02671676    3.52257196   -0.01984673       2
Co    -0.00380618   -0.07244005   -3.58595278       3
Co    -0.05145764   -3.63822327   -0.02499326       4
Ni     3.55527320   -0.06163567   -0.02508024       5
Co    -3.62343103   -0.03578409   -0.01238963       6
Co     1.69426289   -0.00197211    1.67447557       7
Co    -1.79031360   -0.01196176    1.68807002       8
Cr     1.65530508    1.62534735    0.04099687       9
Cr    -1.67606835    1.66225071    0.09220289      10
Ni    -0.02246821   -1.77748617    1.73791959      11
Ni    -0.02887906    1.66368519   -1.74529427      12
Co    -0.01957756   -1.80076602   -1.78049877      13
Co     1.70974403   -1.76760907   -0.06475402      14
Ni    -1.76079037   -1.78921811   -0.01163856      15
Cr     1.72305195   -0.11483540   -1.72797204      16
Ni    -1.77844698   -0.03895907   -1.74340394      17
Co    -0.03087954    1.69648456    1.73593406      18
