          18
Lattice="  24.8920   0.0000   0.0000   0.0000  24.8920   0.0000   0.0000   0.0000  24.8920 " ConfE="      -5929.0838" DelE="          0.0000"
Cr    -3.45418582    0.03500501   -0.00997468       1
Co     0.01686664   -3.53131751    0.01025763       2
Co     3.60048023   -0.02587336   -0.03954852       3
Co     0.01280531    3.60517750    0.01051376       4
Cr     0.07110534    0.03560141   -3.48554597       5
Cr     0.00531933   -0.02131393    3.57744377       6
Ni    -1.69967717    0.00295140   -1.72395106       7
Cr    -1.69777327    0.01441421    1.71635527       8
Co     0.08086510   -1.78145373   -1.77274987       9
Ni     0.03185925   -1.73994947    1.74227579      10
Cr    -1.71028542    1.93003382   -0.01738728      11
Co     1.86054296   -1.80435065   -0.01954621      12
Ni     1.83190831    1.79291659   -0.01007394      13
Ni     0.07051111    1.80300170   -1.75313231      14
Ni     0.04465633    1.81517473    1.77517707      15
Co     1.84142656   -0.03658195   -1.79468052      16
Ni     1.80304020    0.01911504    1.76817486      17
Co     0.00000000    0.00000000    0.00000000      18
          18
Lattice="  24.8920   0.0000   0.0000   0.0000  24.8920   0.0000   0.0000   0.0000  24.8920 " ConfE="      -5928.6632" DelE="          0.4206"
Cr    -3.36387651    0.03504917   -0.02591360       1
Co    -0.02490464   -3.47869361    0.02523277       2
Co     3.57815795   -0.03934321   -0.04086284       3
Co     0.00070403    3.58941849    0.01061200       4
Cr     0.08185972    0.04307221   -3.58578226       5
Cr     0.01700596   -0.01580272    3.66203184       6
Ni    -1.71910861    0.06308448   -1.91766662       7
Cr    -1.77250647    0.03879550    1.92921244       8
Co     0.08344373   -1.78047509   -1.86144735       9
Ni     0.07098970   -1.77400996    1.93137785      10
Cr    -1.68561648    1.87255052   -0.05263117      11
Co     1.75103791   -1.75336965   -0.01497961      12
Ni     1.77612397    1.73808407   -0.01133584      13
Ni     0.06662843    1.75882872   -1.75760688      14
Ni     0.00420683    1.75773143    1.76555761      15
Co     1.82846517   -0.04724933   -1.82182785      16
Ni     1.75482621    0.00499481    1.77361646      17
Co    -0.73882328   -0.60767751    0.07671604      18
          18
Lattice="  24.8920   0.0000   0.0000   0.0000  24.8920   0.0000   0.0000   0.0000  24.8920 " ConfE="      -5929.5808" DelE="         -0.4970"
Cr    -3.51506055    0.04958793   -0.00279500       1
Co     0.04110787   -3.55710832    0.00752510       2
Co     3.61399173   -0.02957661   -0.04559217       3
Co     0.00613950    3.61605208    0.01275237       4
Cr     0.08131561    0.05103242   -3.52213966       5
Cr     0.01721727   -0.01560598    3.61048546       6
Ni    -1.65936321    0.04332417   -1.72046643       7
Cr    -1.69200840    0.05192701    1.73237418       8
Co     0.10204357   -1.76086837   -1.77602644       9
Ni     0.06365154   -1.70439119    1.74859907      10
Cr    -1.71243515    1.85991314    0.00564108      11
Co     1.84531355   -1.79657894   -0.02960158      12
Ni     1.81814843    1.76907249   -0.01517117      13
Ni     0.07301557    1.77885350   -1.72426130      14
Ni     0.04485056    1.78546363    1.74995901      15
Co     1.83361181   -0.04171208   -1.79128694      16
Ni     1.79043018    0.01457966    1.74250296      17
Co    -1.68875116   -1.67417366    0.01056646      18
