          18
Lattice="  24.8920   0.0000   0.0000   0.0000  24.8920   0.0000   0.0000   0.0000  24.8920 " ConfE="      -5933.0453" DelE="          0.0000"
Ni     0.01192436   -3.50616710    0.03693965       1
Ni    -3.53499969    0.04241543    0.03979617       2
Ni    -0.03932285    3.58437040    0.00601989       3
Cr    -0.02983450   -0.02519155   -3.51922775       4
Co     3.55836504    0.00236818    0.01643909       5
Co     0.03853190    0.03881909    3.55408335       6
Ni     1.73156462   -0.04083881   -1.77411269       7
Co     1.77355437   -1.78468823   -0.01661436       8
Co    -1.75836886   -1.75178486    0.02400549       9
Ni    -1.76241202    0.04855619    1.80476322      10
Cr    -1.71006300   -0.09635347   -1.76558074      11
Cr     0.02918486   -1.77478278    1.82392830      12
Cr     1.78880981   -0.03661067    1.76364185      13
Co     1.78071899    1.81425614    0.03036811      14
Cr     0.00039942    1.84256804    1.80033907      15
Co     0.00066978    1.83401734   -1.76954276      16
Cr    -1.77389401    1.83978755    0.00246193      17
Ni     0.00000000    0.00000000    0.00000000      18
          18
Lattice="  24.8920   0.0000   0.0000   0.0000  24.8920   0.0000   0.0000   0.0000  24.8920 " ConfE="      -5932.3910" DelE="          0.6543"
Ni     0.02317924   -3.43072632    0.02599734       1
Ni    -3.60545352    0.06096778    0.04181269       2
Ni    -0.05624530    3.58150720   -0.00199605       3
Cr    -0.01399880   -0.04363802   -3.42077980       4
Co     3.63971318    0.02581867    0.03084349       5
Co     0.02665974    0.03454219    3.54932442       6
Ni     1.94436169    0.03804653   -1.78359488       7
Co     1.97426498   -1.81788277    0.03408084       8
Co    -1.94923498   -1.78796442    0.09612510       9
Ni    -1.79461678    0.04989460    1.78378947      10
Cr    -1.88320247   -0.00237765   -1.78049039      11
Cr    -0.00338575   -1.70135859    1.73943457      12
Cr     1.67867014   -0.05118081    1.61209881      13
Co     1.78314202    1.79920109    0.01870358      14
Cr    -0.02029541    1.73962153    1.70468676      15
Co    -0.00544075    1.75940683   -1.71745478      16
Cr    -1.77317143    1.79623870   -0.02012059      17
Ni     0.01772296   -0.80162189   -0.76758171      18
          18
Lattice="  24.8920   0.0000   0.0000   0.0000  24.8920   0.0000   0.0000   0.0000  24.8920 " ConfE="      -5932.9768" DelE="          0.0685"
Ni     0.01920437   -3.54733956    0.04858863       1
Ni    -3.54949684    0.04885452    0.04350354       2
Ni    -0.04255564    3.60822867    0.00676980       3
Cr    -0.02042412    0.03076683   -3.56039116       4
Co     3.59086973    0.01226831    0.02329200       5
Co     0.03347444    0.03824702    3.57234624       6
Ni     1.75036487    0.00906376   -1.73948234       7
Co     1.77494464   -1.74168099    0.02440557       8
Co    -1.73748134   -1.71860918    0.03700823       9
Ni    -1.71735682    0.05662247    1.76098512      10
Cr    -1.71085550   -0.01526247   -1.71589130      11
Cr     0.02998781   -1.73081106    1.75138926      12
Cr     1.70871761   -0.02799252    1.69707286      13
Co     1.74933745    1.79017616    0.04313220      14
Cr     0.01598106    1.80543326    1.75870108      15
Co    -0.01613838    1.77999379   -1.71329113      16
Cr    -1.74079443    1.81719300    0.00071718      17
Ni     0.02405407   -1.74340213   -1.74546212      18
