          18
Lattice="  24.8920   0.0000   0.0000   0.0000  24.8920   0.0000   0.0000   0.0000  24.8920 " ConfE="      -5941.0127" DelE="          0.0000"
Cr    -0.04368238   -3.22226454    0.07807983       1
Cr    -0.00753121    0.07655069   -3.25087254       2
Cr    -0.04589203    3.75126879    0.14241611       3
Cr    -0.04770199    0.21679979    3.75416843       4
Co    -3.56462139    0.22346315    0.15327871       5
Co     3.57949119    0.15388274    0.16888271       6
Cr    -1.83208691   -1.64052066    0.12297664       7
Cr     1.83122651   -1.53650607    0.18865589       8
Ni    -1.81363645    0.16356662   -1.61450733       9
Co     1.77516731    0.12813106   -1.64146022      10
Ni    -0.04782259   -1.57275165    1.96388296      11
Co    -0.01465602    1.98120185   -1.61640069      12
Ni    -0.07401045    1.90852066    1.88242666      13
Cr    -1.85641730    0.22978460    1.90834856      14
Co     1.74702459    0.18641679    1.94716682      15
Cr    -1.81363058    1.99398279    0.13369748      16
Cr     1.78303168    1.86512671    0.13362703      17
Cr     0.00000000    0.00000000    0.00000000      18
          18
Lattice="  24.8920   0.0000   0.0000   0.0000  24.8920   0.0000   0.0000   0.0000  24.8920 " ConfE="      -5936.6271" DelE="          4.3856"
Cr    -0.06684117   -3.30324367    0.15988280       1
Cr    -0.05984662    0.20823633   -3.31693497       2
Cr     0.00382777    3.71713162    0.09020959       3
Cr    -0.08993758    0.25975886    3.83095700       4
Co    -3.63018554    0.16536184    0.17364667       5
Co     3.60758538    0.10810333    0.19625944       6
Cr    -1.51040804   -1.41417513    0.16876129       7
Cr     1.62066491   -1.46335755    0.23139049       8
Ni    -2.06365545   -0.08265364   -1.66960281       9
Co     1.77110936   -0.03755709   -1.62055356      10
Ni    -0.02201711   -1.55457843    2.06245993      11
Co    -0.83909206    1.78183154   -1.40911419      12
Ni    -0.11168372    1.88055386    1.85820240      13
Cr    -1.85306878    0.19170278    1.97326442      14
Co     1.80970047    0.08285242    2.15349630      15
Cr    -2.10886162    1.90976488    0.37055989      16
Cr     1.86998723    1.61331921    0.50245309      17
Cr     1.22897805    2.12958566   -1.50923208      18
          18
Lattice="  24.8920   0.0000   0.0000   0.0000  24.8920   0.0000   0.0000   0.0000  24.8920 " ConfE="      -5941.0329" DelE="         -0.0202"
Cr    -0.04616535   -3.28935804    0.11697802       1
Cr    -0.02836089    0.13407193   -3.33952381       2
Cr    -0.03209951    3.73254142    0.14977975       3
Cr    -0.05408141    0.22432935    3.73477186       4
Co    -3.56248282    0.22040557    0.15258607       5
Co     3.57294338    0.15081961    0.17228967       6
Cr    -1.76068581   -1.62995421    0.10797212       7
Cr     1.74345856   -1.50506201    0.15548105       8
Ni    -1.78832567    0.16524934   -1.61477594       9
Co     1.74600924    0.13215317   -1.64045435      10
Ni    -0.04212761   -1.58046323    1.97741173      11
Co    -0.03314383    0.13304710    0.12040828      12
Ni    -0.06883522    1.94012146    1.91641702      13
Cr    -1.84323228    0.23096057    1.91642434      14
Co     1.75485151    0.18845425    1.96884947      15
Cr    -1.81928535    1.98329387    0.14557944      16
Cr     1.80523806    1.84992104    0.15573119      17
Cr     0.00740881    1.96508420   -1.62130389      18
