          18
Lattice="  24.8920   0.0000   0.0000   0.0000  24.8920   0.0000   0.0000   0.0000  24.8920 " ConfE="      -5946.5428" DelE="          0.0000"
Co     0.03839938   -0.00783605   -3.48342347       1
Ni    -3.47384610    0.02815519   -0.00257453       2
Cr     0.06129286    0.08955933    3.62825840       3
Co     3.66007015    0.02987695    0.02937276       4
Cr     0.08162544    3.51584711    0.02217137       5
Cr     0.04281725   -3.52518900    0.06167879       6
Co    -0.01671759    1.73391911   -1.77169068       7
Cr     0.09733061   -1.69702161   -1.74611391       8
Ni    -1.71923055    1.76323451    0.01251736       9
Cr    -1.67724625   -1.68041417   -0.07177859      10
Co     1.85369954    0.01889337   -1.75700189      11
Cr    -1.74205825    0.04602934    1.86467036      12
Ni     1.84068415    0.05535691    1.81967416      13
Co     1.79611870    1.79066323    0.00547513      14
Ni     1.84729632   -1.72383295    0.04484913      15
Co     0.04589406    1.79562503    1.82697682      16
Ni     0.05639609   -1.71441541    1.81767842      17
Co     0.00000000    0.00000000    0.00000000      18
          18
Lattice="  24.8920   0.0000   0.0000   0.0000  24.8920   0.0000   0.0000   0.0000  24.8920 " ConfE="      -5946.0949" DelE="          0.4479"
Co     0.03960671   -0.00942994   -3.42626045       1
Ni    -3.47201858    0.04991730   -0.01057638       2
Cr     0.03427988    0.09628396    3.62426504       3
Co     3.66171726    0.03402845    0.01946562       4
Cr     0.08073309    3.61127880    0.05072399       5
Cr     0.03556609   -3.55550023    0.05503727       6
Co     0.04050793    1.91013567   -1.81156644       7
Cr     0.20335833   -1.87319610   -1.82468225       8
Ni    -1.71648966    1.85953903    0.01279235       9
Cr    -1.77028231   -1.78289312   -0.03047650      10
Co     1.83994645    0.03471421   -1.75340099      11
Cr    -1.68404060    0.05806135    1.75644725      12
Ni     1.80704619    0.06578288    1.78775345      13
Co     1.75437623    1.77520827   -0.00947385      14
Ni     1.81355907   -1.70272068    0.01703224      15
Co     0.03775064    1.80601470    1.80513644      16
Ni     0.04037944   -1.68039343    1.73968775      17
Co    -0.50345771   -0.08019872   -0.70532415      18
          18
Lattice="  24.8920   0.0000   0.0000   0.0000  24.8920   0.0000   0.0000   0.0000  24.8920 " ConfE="      -5946.9501" DelE="         -0.4073"
Co     0.07455151    0.00590732   -3.53011321       1
Ni    -3.51154713    0.02789140    0.03187028       2
Cr     0.05584493    0.10992187    3.65735114       3
Co     3.66778489    0.02793939    0.02814682       4
Cr     0.08901047    3.54981907    0.03032548       5
Cr     0.05124617   -3.55087888    0.06809008       6
Co     0.04927562    1.74525555   -1.73582978       7
Cr     0.11902734   -1.69020680   -1.72760345       8
Ni    -1.67600257    1.74428267    0.03604065       9
Cr    -1.63588042   -1.67633160   -0.00114119      10
Co     1.81447928    0.01082122   -1.73801350      11
Cr    -1.70836892    0.04130452    1.82282042      12
Ni     1.82909751    0.06742103    1.81528371      13
Co     1.78307846    1.77288641    0.01534337      14
Ni     1.81131977   -1.69373714    0.04477254      15
Co     0.05306612    1.78273298    1.81943465      16
Ni     0.06409786   -1.67425021    1.79336716      17
Co    -1.67699328   -0.01627428   -1.72994972      18
