          18
Lattice="  24.8920   0.0000   0.0000   0.0000  24.8920   0.0000   0.0000   0.0000  24.8920 " ConfE="      -5938.8414" DelE="          0.0000"
Ni     3.43521220    0.01444769   -0.03469589       1
Ni    -0.04030767    3.49379336   -0.02344803       2
Ni    -0.04464759   -0.03990866    3.52885417       3
Ni    -3.56383614   -0.08691435   -0.00800008       4
Co    -0.06902538   -0.01633692   -3.57409054       5
Co    -0.00471207   -3.59471072   -0.04184085       6
Ni     1.70533567    0.03399272   -1.77470452       7
Ni    -0.01680628    1.70963342    1.74210906       8
Ni     1.73613564   -1.80461913   -0.00195384       9
Co    -0.07283357    1.78917152   -1.83011281      10
Ni    -0.02870011   -1.79890022   -1.75841121      11
Ni    -1.81605199    1.73547403   -0.02252273      12
Cr     1.75900700   -0.06899518    1.83879493      13
Ni    -0.04146489   -1.81600977    1.76562987      14
Co    -1.83119545   -1.82523002   -0.00707954      15
Co    -1.83604729   -0.04633844   -1.80697326      16
Co    -1.82248669   -0.10182255    1.75345110      17
Ni     0.00000000    0.00000000    0.00000000      18
          18
Lattice="  24.8920   0.0000   0.0000   0.0000  24.8920   0.0000   0.0000   0.0000  24.8920 " ConfE="      -5937.2421" DelE="          1.5992"
Ni     3.40511926    0.00689514   -0.05445874       1
Ni    -0.04264019    3.46043149   -0.01943333       2
Ni    -0.06520088   -0.04431417    3.62577177       3
Ni    -3.47040103   -0.14466116    0.00229718       4
Co    -0.05498981   -0.03136714   -3.69793723       5
Co    -0.03754354   -3.50917459   -0.04185110       6
Ni     1.71441845   -0.05030262   -1.94144271       7
Ni    -0.14070220    1.69705788    1.89781101       8
Ni     1.63102462   -1.71277081    0.00196914       9
Co    -0.14135016    1.78215203   -1.96253238      10
Ni     0.01604790   -1.81887952   -1.92805768      11
Ni    -1.74056187    1.66924506   -0.02607094      12
Cr     1.72452868   -0.11521321    1.93155223      13
Ni    -0.01478868   -1.81600784    1.92065988      14
Co    -1.00084498   -0.96309093   -0.01983225      15
Co    -1.85791225   -0.01042781   -1.96725378      16
Co    -1.86436778   -0.10793780    1.91957285      17
Ni     1.07317078    1.10832271   -0.00456557      18
          18
Lattice="  24.8920   0.0000   0.0000   0.0000  24.8920   0.0000   0.0000   0.0000  24.8920 " ConfE="      -5938.6814" DelE="          0.1599"
Ni     3.48045885   -0.02622779   -0.03838569       1
Ni    -0.06761826    3.52930929   -0.02613702       2
Ni    -0.05106879   -0.04039285    3.53789571       3
Ni    -3.58249526   -0.07358893   -0.01384671       4
Co    -0.07641838   -0.02712178   -3.60132541       5
Co    -0.00511944   -3.60985894   -0.04536583       6
Ni     1.67004790   -0.01579701   -1.78099211       7
Ni    -0.06161168    1.66849020    1.72445060       8
Ni     1.69467218   -1.75761423    0.01135323       9
Co    -0.10504571    1.76875131   -1.84432786      10
Ni    -0.05088838   -1.78105361   -1.73220978      11
Ni    -1.79293429    1.72080270   -0.03343401      12
Cr     1.73999474   -0.07651035    1.83703840      13
Ni    -0.04679234   -1.78789360    1.74215517      14
Co    -1.83779624   -1.81059352   -0.00438836      15
Co    -1.82612796   -0.04748767   -1.79206860      16
Co    -1.81117350   -0.10342433    1.71881913      17
Ni     1.65805422    1.69339119   -0.03963349      18
