          18
Lattice="  24.8920   0.0000   0.0000   0.0000  24.8920   0.0000   0.0000   0.0000  24.8920 " ConfE="      -5946.3952" DelE="          0.0000"
Ni    -0.08026959   -3.46209312    0.00258111       1
Ni    -0.06177793   -0.00854550    3.50952270       2
Ni    -0.08776739    3.56632587   -0.03318446       3
Co    -0.01440403    0.04005951   -3.57866806       4
Cr     3.46696271    0.00847541   -0.06281510       5
Cr    -3.65482896    0.04952678   -0.03131743       6
Co     1.71878491   -1.75927219   -0.01263393       7
Co    -1.84892325   -1.72790491   -0.02914606       8
Co     1.68089453   -0.01836543    1.73615961       9
Ni    -1.78277743    0.00238634    1.71672546      10
Ni    -0.07399201   -1.74093016   -1.83188295      11
Co    -0.03026292    1.82556385    1.74356709      12
Cr    -0.05152861    1.75023914   -1.76128329      13
Co     1.72402734   -0.00713476   -1.81915117      14
Co    -1.83545721    0.02150837   -1.77999581      15
Co     1.71157924    1.80473462   -0.04218466      16
Co    -1.85599119    1.79576166   -0.03232684      17
Cr     0.00000000    0.00000000    0.00000000      18
          18
Lattice="  24.8920   0.0000   0.0000   0.0000  24.8920   0.0000   0.0000   0.0000  24.8920 " ConfE="      -5945.6723" DelE="          0.7229"
Ni    -0.08293858   -3.44473473   -0.01116719       1
Ni    -0.06549838   -0.01805364    3.45678390       2
Ni    -0.08787109    3.55352867   -0.02303356       3
Co    -0.00944293    0.02498637   -3.57789612       4
Cr     3.57133750    0.03589225   -0.10538321       5
Cr    -3.73358469    0.06213773   -0.04810957       6
Co     1.85196168   -1.78175249   -0.06741858       7
Co    -1.93895889   -1.73870792   -0.03899139       8
Co     1.82555903    0.03035701    1.78211116       9
Ni    -1.93759054    0.06206891    1.74222888      10
Ni    -0.07969539   -1.70873415   -1.76850127      11
Co    -0.03392504    1.73597831    1.70392637      12
Cr    -0.06412160    1.63461066   -1.65005662      13
Co     1.70013798   -0.01534223   -1.75896891      14
Co    -1.82930201    0.01828781   -1.74560617      15
Co     1.68623383    1.74146589   -0.03359934      16
Co    -1.84814227    1.76476462   -0.03357980      17
Cr    -0.00249904   -0.84518940    0.79717745      18
          18
Lattice="  24.8920   0.0000   0.0000   0.0000  24.8920   0.0000   0.0000   0.0000  24.8920 " ConfE="      -5946.3224" DelE="          0.0727"
Ni    -0.07512185   -3.52220429   -0.05148870       1
Ni    -0.06275491    0.02511809    3.54595182       2
Ni    -0.08842680    3.57347015   -0.03075824       3
Co    -0.01305576    0.03566313   -3.60536754       4
Cr     3.51237602    0.01487869   -0.09129721       5
Cr    -3.66735226    0.05475592   -0.03580575       6
Co     1.72357859   -1.73492739   -0.04551273       7
Co    -1.84544030   -1.72362149   -0.04526369       8
Co     1.69346291    0.01045351    1.72235684       9
Ni    -1.77435549    0.04214529    1.67500770      10
Ni    -0.07487447   -1.70464762   -1.78973983      11
Co    -0.01878038    1.79604342    1.73135471      12
Cr    -0.06587523    1.68518697   -1.69621279      13
Co     1.69757459    0.00838875   -1.79664336      14
Co    -1.82492158    0.03931070   -1.76893088      15
Co     1.67590670    1.76460245   -0.04999458      16
Co    -1.84379565    1.79799614   -0.05019641      17
Cr     0.01529625   -1.68738911    1.67259610      18
