          18
Lattice="  24.8920   0.0000   0.0000   0.0000  24.8920   0.0000   0.0000   0.0000  24.8920 " ConfE="      -5940.9507" DelE="          0.0000"
Cr     0.00551641    0.04310850    3.41765862       1
Co    -0.00321421    3.34562636   -0.01367716       2
Ni     0.02555385   -0.16354267   -3.59881790       3
Cr    -0.01195425   -3.83374006   -0.05097684       4
Cr    -3.53237547   -0.18139674   -0.09100872       5
Co     3.54270801   -0.13700781   -0.07921011       6
Ni    -1.76282885   -0.13390422    1.72340674       7
Ni     1.75997806   -0.13916267    1.70068808       8
Co    -1.81225966    1.62050301   -0.04116571       9
Co     1.78477326    1.65604805   -0.06463310      10
Cr     0.04698637   -1.97225676    1.68129244      11
Cr     0.00600362    1.62185170   -1.81535817      12
Ni     0.00255949   -1.94056505   -1.78646681      13
Ni    -1.74411561   -1.94627561   -0.04311013      14
Co     1.74878476   -1.94979228   -0.03589311      15
Co    -1.76117456   -0.16114084   -1.82382930      16
Cr     1.79968262   -0.17186839   -1.78353903      17
Cr     0.00000000    0.00000000    0.00000000      18
          18
Lattice="  24.8920   0.0000   0.0000   0.0000  24.8920   0.0000   0.0000   0.0000  24.8920 " ConfE="      -5939.9526" DelE="          0.9981"
Cr     0.00081049   -0.18786791    3.40624668       1
Co     0.00377391    3.30497897   -0.05508283       2
Ni     0.03535113   -0.17102205   -3.54177710       3
Cr    -0.00525684   -3.73468006   -0.08719534       4
Cr    -3.69990483   -0.21532903   -0.08396519       5
Co     3.65844809   -0.13390132   -0.07636192       6
Ni    -1.87705095   -0.19501075    1.68997636       7
Ni     1.91445804   -0.24972744    1.67748611       8
Co    -1.94138219    1.60963534   -0.04413607       9
Co     1.97313686    1.69414911   -0.10451062      10
Cr     0.02228657   -1.90244987    1.51315266      11
Cr    -0.01029921    1.51035448   -1.70457979      12
Ni    -0.01212640   -1.31272273   -1.21668237      13
Ni    -1.92043350   -1.96246614   -0.03403186      14
Co     1.91645980   -1.99121320   -0.02331189      15
Co    -1.94851022   -0.09349533   -1.80424370      16
Cr     1.90893320   -0.10964641   -1.73853272      17
Cr     0.06482052    0.70794984    0.62511443      18
          18
Lattice="  24.8920   0.0000   0.0000   0.0000  24.8920   0.0000   0.0000   0.0000  24.8920 " ConfE="      -5940.5802" DelE="          0.3705"
Cr     0.00367984   -0.12745918    3.46698097       1
Co    -0.00261028    3.40726765   -0.06637492       2
Ni     0.02630101   -0.19848303   -3.48630522       3
Cr     0.00198067   -3.68810719   -0.10485464       4
Cr    -3.64537322   -0.20513261   -0.08133892       5
Co     3.62924107   -0.14171617   -0.07563423       6
Ni    -1.81514959   -0.18259044    1.67180274       7
Ni     1.81776349   -0.19942225    1.65636597       8
Co    -1.84674872    1.58432182   -0.07135647       9
Co     1.83277286    1.61319761   -0.11063218      10
Cr     0.03039483   -1.84156389    1.53916367      11
Cr     0.00148054    1.48820476   -1.60627437      12
Ni     0.02161063   -1.07318904   -0.98817373      13
Ni    -1.91469135   -1.98840343   -0.05584424      14
Co     1.95835797   -2.01832963   -0.02730882      15
Co    -1.96469501   -0.12515107   -1.84288157      16
Cr     1.98569053   -0.17103654   -1.82106930      17
Cr     0.02638399    1.44624586    1.44837628      18
