          18
Lattice="  24.8920   0.0000   0.0000   0.0000  24.8920   0.0000   0.0000   0.0000  24.8920 " ConfE="      -5942.9357" DelE="          0.0000"
Cr     3.47722030   -0.07838926   -0.01537109       1
Cr    -0.00995592    3.34640858    0.03129376       2
Ni    -3.62716444   -0.17792369    0.05141714       3
Ni    -0.08164986   -3.70529875    0.05799710       4
Co    -0.05163138   -0.19178466    3.64386069       5
Ni    -0.06477227   -0.15774293   -3.47125495       6
Ni     1.69891620   -0.11582541    1.77951789       7
Ni     1.71746500   -0.14538799   -1.70688822       8
Co    -0.08264962    1.65386845    1.80403166       9
Cr    -0.01346569    1.63144230   -1.65040630      10
Co     1.75980483   -1.93047130    0.08002512      11
Ni    -1.87000324    1.60802068    0.05373428      12
Ni    -1.81522101   -1.90136179    0.04613478      13
Ni    -0.06547747   -1.91314523    1.83288928      14
Ni    -0.05100681   -1.92816581   -1.69192964      15
Ni    -1.84412546   -0.16757887    1.83577918      16
Co    -1.82840416   -0.12391263   -1.73985446      17
Co     0.00000000    0.00000000    0.00000000      18
          18
Lattice="  24.8920   0.0000   0.0000   0.0000  24.8920   0.0000   0.0000   0.0000  24.8920 " ConfE="      -5942.7413" DelE="          0.1944"
Cr     3.39587825   -0.03902830   -0.02361114       1
Cr    -0.00182031    3.31625466   -0.00018253       2
Ni    -3.60459939   -0.16963526    0.05036316       3
Ni    -0.07238557   -3.71327815    0.05901019       4
Co    -0.04762953   -0.22542339    3.70483871       5
Ni    -0.05483045   -0.18083503   -3.52553388       6
Ni     1.68460327   -0.12713808    1.85103630       7
Ni     1.73938625   -0.18301858   -1.81883807       8
Co    -0.13383226    1.68896065    2.00947082       9
Cr    -0.04829232    1.71254257   -1.91440225      10
Co     1.73648512   -1.86190695    0.07725644      11
Ni    -1.81321008    1.60708656    0.05422207      12
Ni    -1.77107718   -1.87342261    0.04680415      13
Ni    -0.05762131   -1.90971999    1.84127207      14
Ni    -0.02852352   -1.90890040   -1.68461812      15
Ni    -1.80264395   -0.15896909    1.82949803      16
Co    -1.72032967   -0.08908044   -1.70450075      17
Co     0.47460567    0.69469371   -0.04687955      18
          18
Lattice="  24.8920   0.0000   0.0000   0.0000  24.8920   0.0000   0.0000   0.0000  24.8920 " ConfE="      -5943.2593" DelE="         -0.3236"
Cr     3.49676168   -0.09617649   -0.00812033       1
Cr    -0.04437994    3.42832143    0.02528947       2
Ni    -3.62464088   -0.17798675    0.04961354       3
Ni    -0.08350095   -3.72854589    0.06025309       4
Co    -0.05221654   -0.20917244    3.66495228       5
Ni    -0.06591283   -0.17047431   -3.48951204       6
Ni     1.66155703   -0.14145821    1.77742596       7
Ni     1.66734187   -0.17322400   -1.67868479       8
Co    -0.09940408    1.63189151    1.82402044       9
Cr    -0.02572962    1.64544563   -1.70554870      10
Co     1.76169658   -1.92921748    0.09309859      11
Ni    -1.78177268    1.56720479    0.04059394      12
Ni    -1.80662474   -1.90540827    0.05416621      13
Ni    -0.07113350   -1.93663088    1.84170166      14
Ni    -0.05420536   -1.92729494   -1.67142630      15
Ni    -1.82906424   -0.18060899    1.83147208      16
Co    -1.79303455   -0.12820722   -1.72992097      17
Co     1.58901016    1.62156139    0.00578215      18
