          18
Lattice="  24.8920   0.0000   0.0000   0.0000  24.8920   0.0000   0.0000   0.0000  24.8920 " ConfE="      -5934.7453" DelE="          0.0000"
Co     0.00113807    3.57619866   -0.04254594       1
Co    -3.47953005    0.09623182   -0.10388410       2
Co     3.57086326    0.04951676   -0.01990514       3
Cr     0.04789835   -3.51827332   -0.02529253       4
Co     0.01943893    0.04204098    3.46709289       5
Cr     0.07699010    0.02318652   -3.67915280       6
Ni    -1.75087876    0.11213699    1.66583300       7
Ni     0.02972381    1.75515248   -1.81059364       8
Ni    -1.70789316    0.02890969   -1.83023245       9
Co     0.04370491    1.80924453    1.65573449      10
Ni     1.81192006    1.78527388   -0.09496613      11
Co    -1.70607544   -1.77023543   -0.03672082      12
Co     1.79328349    0.02111611    1.68499370      13
Cr     1.79661715   -1.72633181   -0.02233755      14
Co     0.04228744   -1.75223314    1.71543823      15
Cr     1.81786323   -0.01959812   -1.85285862      16
Co     0.06125773   -1.73428472   -1.82607754      17
Cr     0.00000000    0.00000000    0.00000000      18
          18
Lattice="  24.8920   0.0000   0.0000   0.0000  24.8920   0.0000   0.0000   0.0000  24.8920 " ConfE="      -5933.8555" DelE="          0.8898"
Co    -0.01855250    3.52844526   -0.05952831       1
Co    -3.42781404    0.07681827   -0.07614610       2
Co     3.55944898    0.06643627   -0.02399862       3
Cr     0.02278333   -3.50507567   -0.02320984       4
Co     0.03905898    0.02587721    3.53864914       5
Cr     0.10039526    0.01486633   -3.79394030       6
Ni    -1.77052214    0.00504989    1.84807358       7
Ni     0.07060324    1.78581123   -1.98242956       8
Ni    -1.71880708   -0.00203603   -2.00104337       9
Co     0.06555261    1.80781403    1.77754864      10
Ni     1.72149253    1.75845421   -0.11121534      11
Co    -1.65996159   -1.68402731   -0.03653902      12
Co     1.74021548    0.02898695    1.64636546      13
Cr     1.68975124   -1.63288918   -0.02571926      14
Co     0.05311773   -1.70457058    1.67981832      15
Cr     1.74060422   -0.01247315   -1.82947942      16
Co     0.06783503   -1.66395967   -1.80863614      17
Cr    -0.86312225    0.91303067   -0.04881351      18
          18
Lattice="  24.8920   0.0000   0.0000   0.0000  24.8920   0.0000   0.0000   0.0000  24.8920 " ConfE="      -5934.6852" DelE="          0.0601"
Co     0.00214224    3.61443829   -0.06739717       1
Co    -3.51990407    0.04426757   -0.07773042       2
Co     3.59826261    0.05266324   -0.02389013       3
Cr     0.04690696   -3.52684871   -0.02496360       4
Co     0.03263697    0.03346362    3.49745788       5
Cr     0.07357295    0.01906709   -3.69657808       6
Ni    -1.68992992    0.05299744    1.66511516       7
Ni     0.04319314    1.73514310   -1.83237204       8
Ni    -1.70299268    0.00894465   -1.82879656       9
Co     0.05600963    1.80040595    1.65547172      10
Ni     1.76683345    1.75005429   -0.10539499      11
Co    -1.68287637   -1.74782396   -0.03523322      12
Co     1.78305418    0.01682294    1.65104490      13
Cr     1.73152837   -1.65644904   -0.02209016      14
Co     0.07355321   -1.72983601    1.66433449      15
Cr     1.80607094   -0.03390278   -1.84351760      16
Co     0.08501477   -1.69008138   -1.78728741      17
Cr    -1.72189256    1.75391074   -0.05888412      18
