          18
Lattice="  24.8920   0.0000   0.0000   0.0000  24.8920   0.0000   0.0000   0.0000  24.8920 " ConfE="      -5942.0471" DelE="          0.0000"
Cr    -0.01855109   -0.12068929   -3.53772410       1
Cr     3.46228498   -0.02691936   -0.02909527       2
Ni    -0.07062273    0.02530303    3.61567409       3
Cr    -3.56467174   -0.08013707    0.05136763       4
Ni    -0.07751346   -3.55878982    0.02195988       5
Ni    -0.04422449    3.54119012    0.04604356       6
Ni    -0.05245604   -1.77461227   -1.73669474       7
Cr    -0.02665103    1.74440778   -1.71491197       8
Cr     1.67226878   -1.68260371    0.03958630       9
Cr     1.68250634    1.64270868   -0.00036330      10
Ni    -1.83012570   -0.02252623   -1.72819547      11
Co     1.74367218   -0.03133519    1.84622389      12
Co    -1.84959653    0.01842476    1.81495242      13
Co    -1.84179620   -1.78079650    0.04716785      14
Ni    -1.82940136    1.78942043    0.05105607      15
Co    -0.07226386   -1.77693093    1.82312423      16
Ni    -0.07682230    1.79267463    1.82587445      17
Co     0.00000000    0.00000000    0.00000000      18
          18
Lattice="  24.8920   0.0000   0.0000   0.0000  24.8920   0.0000   0.0000   0.0000  24.8920 " ConfE="      -5941.7231" DelE="          0.3240"
Cr     0.00445134   -0.12221989   -3.51413567       1
Cr     3.38099888   -0.04130125   -0.04740180       2
Ni    -0.05865289    0.02861169    3.60446672       3
Cr    -3.58390021   -0.07754476    0.04716359       4
Ni    -0.09134887   -3.60963093    0.02146466       5
Ni    -0.04511565    3.57888992    0.05794491       6
Ni    -0.07962249   -1.86589351   -1.75905339       7
Cr    -0.04661054    1.85350856   -1.72441111       8
Cr     1.70636570   -1.87033276    0.08093941       9
Cr     1.81406820    1.88212814    0.04733106      10
Ni    -1.76517625   -0.02155176   -1.68909624      11
Co     1.74655430   -0.01582506    1.80357451      12
Co    -1.83570016    0.02243361    1.80063054      13
Co    -1.83080564   -1.77898186    0.04618704      14
Ni    -1.80108394    1.77770572    0.05658510      15
Co    -0.04347372   -1.72750047    1.72712922      16
Ni    -0.04181451    1.78266780    1.78553615      17
Co     0.59988645    0.02989646   -0.47657373      18
          18
Lattice="  24.8920   0.0000   0.0000   0.0000  24.8920   0.0000   0.0000   0.0000  24.8920 " ConfE="      -5942.2501" DelE="         -0.2030"
Cr    -0.04315965   -0.14356866   -3.59753756       1
Cr     3.52204849   -0.02944124    0.01039275       2
Ni    -0.07191946    0.02398037    3.62644443       3
Cr    -3.59262228   -0.07591772    0.05309807       4
Ni    -0.08818882   -3.58501235    0.03172015       5
Ni    -0.05513719    3.56251188    0.05811013       6
Ni    -0.08081781   -1.78657257   -1.69850435       7
Cr    -0.04878964    1.77778781   -1.68390345       8
Cr     1.62610381   -1.67184302    0.08378664       9
Cr     1.61884215    1.60770698    0.02725888      10
Ni    -1.77285993   -0.01518379   -1.68826790      11
Co     1.70374590   -0.02366071    1.78168420      12
Co    -1.86186022    0.01446484    1.81865488      13
Co    -1.83906993   -1.76553349    0.06577583      14
Ni    -1.81336049    1.77057634    0.06295136      15
Co    -0.07813307   -1.75677455    1.79329079      16
Ni    -0.08962938    1.77707961    1.81497534      17
Co     1.64147112   -0.01838541   -1.68234920      18
