          18
Lattice="  24.8920   0.0000   0.0000   0.0000  24.8920   0.0000   0.0000   0.0000  24.8920 " ConfE="      -5938.2556" DelE="          0.0000"
Ni     0.01513466   -0.01272309    3.49903805       1
Ni    -3.54753778   -0.03848146    0.00654388       2
Co    -0.00371396   -3.55251337   -0.00410169       3
Co     3.57163646   -0.01404395   -0.02819989       4
Cr    -0.01156554    3.57881394   -0.00334675       5
Co     0.00555793    0.02095656   -3.57135052       6
Ni     1.77367626   -0.01700687    1.76949715       7
Ni    -1.72535894   -0.06410779    1.76584223       8
Ni     1.79448265    1.77138987    0.01612121       9
Co     1.75609470   -1.76384965   -0.00926079      10
Co    -1.76022786   -1.82142907   -0.02639278      11
Cr    -0.02553823    1.81861309    1.75912217      12
Cr     1.71607787   -0.04829217   -1.73650325      13
Cr     0.00233539    1.76645604   -1.79145816      14
Co     0.00757120   -1.75413136   -1.81365416      15
Cr    -1.81480118    1.76177383    0.01421473      16
Co    -1.76611071    0.01045218   -1.78495544      17
Co     0.00000000    0.00000000    0.00000000      18
          18
Lattice="  24.8920   0.0000   0.0000   0.0000  24.8920   0.0000   0.0000   0.0000  24.8920 " ConfE="      -5937.1610" DelE="          1.0947"
Ni     0.02032632   -0.01679076    3.47680697       1
Ni    -3.60563211   -0.02783746    0.00176047       2
Co     0.00621148   -3.54374472   -0.00742887       3
Co     3.63103689    0.00409788   -0.03816205       4
Cr    -0.01712354    3.58918762    0.02070507       5
Co     0.00066467    0.01160614   -3.54718623       6
Ni     1.90368966    0.02125518    1.78702073       7
Ni    -1.89738189    0.00432001    1.81505413       8
Ni     1.76637919    1.71543016    0.01002803       9
Co     1.93484087   -1.78466847   -0.06283204      10
Co    -1.92194872   -1.86325536   -0.07317472      11
Cr    -0.01575803    1.67865496    1.68473770      12
Cr     1.66594504   -0.09122025   -1.67346381      13
Cr    -0.01713490    1.71624150   -1.70131511      14
Co     0.01058476   -1.68702662   -1.66526168      15
Cr    -1.78290414    1.69068299    0.04659316      16
Co    -1.73739687    0.01511168   -1.71426710      17
Co    -0.01340949   -1.14787898    1.04108461      18
          18
Lattice="  24.8920   0.0000   0.0000   0.0000  24.8920   0.0000   0.0000   0.0000  24.8920 " ConfE="      -5937.8072" DelE="          0.4484"
Ni     0.01287117    0.01085552    3.53160975       1
Ni    -3.56852001   -0.03024037    0.00136290       2
Co     0.00795469   -3.58733694   -0.02436426       3
Co     3.58926454   -0.01374920   -0.03044533       4
Cr    -0.01104601    3.61024090    0.00001337       5
Co     0.00383026    0.02054051   -3.58098988       6
Ni     1.76673916   -0.00453990    1.75286909       7
Ni    -1.71353479   -0.03991218    1.72483065       8
Ni     1.75462095    1.72728005    0.00175629       9
Co     1.76332689   -1.74312229   -0.02363456      10
Co    -1.76438115   -1.81118638   -0.04026191      11
Cr    -0.02658593    1.76167847    1.70481916      12
Cr     1.67378417   -0.08416369   -1.70800929      13
Cr    -0.00470629    1.72362356   -1.73230265      14
Co     0.01293837   -1.70532793   -1.74261630      15
Cr    -1.79252565    1.74821454    0.00279337      16
Co    -1.72274028    0.02789667   -1.73495644      17
Co     0.03222808   -1.80502394    1.75176504      18
