          18
Lattice="  24.8920   0.0000   0.0000   0.0000  24.8920   0.0000   0.0000   0.0000  24.8920 " ConfE="      -5949.6329" DelE="          0.0000"
Ni    -3.49315046   -0.01864050   -0.02749120       1
Cr    -0.05425607   -0.01371440    3.42702626       2
Cr     3.56619136   -0.01401634   -0.01218032       3
Co     0.03255327    0.01200958   -3.62102977       4
Co     0.01198192   -3.54809906   -0.04080587       5
Ni     0.03212279    3.55403259   -0.06893230       6
Ni    -1.75373699   -1.77436352   -0.03632664       7
Cr    -1.73043449    1.76188718   -0.14520257       8
Cr    -0.03293659   -1.71832155    1.69762219       9
Ni    -0.01870737    1.76457688    1.70598211      10
Ni    -1.73691112   -0.01587728   -1.85728035      11
Cr     1.81313754   -0.02015012    1.70683291      12
Co     1.80858760   -0.00127710   -1.79915652      13
Ni     0.03759438   -1.77169947   -1.82316729      14
Cr     0.06865628    1.75967431   -1.86012756      15
Co     1.79929981   -1.77025014   -0.02989631      16
Ni     1.80742657    1.78649765   -0.04473330      17
Co     0.00000000    0.00000000    0.00000000      18
          18
Lattice="  24.8920   0.0000   0.0000   0.0000  24.8920   0.0000   0.0000   0.0000  24.8920 " ConfE="      -5949.0699" DelE="          0.5629"
Ni    -3.48381816   -0.01941868   -0.02339135       1
Cr    -0.08085014   -0.00990903    3.33962981       2
Cr     3.57600317   -0.00546537    0.00921418       3
Co     0.03056960    0.01038376   -3.61041674       4
Co     0.01232460   -3.59031319   -0.05077773       5
Ni     0.03921959    3.60098616   -0.08284028       6
Ni    -1.82156320   -1.90664046   -0.09626144       7
Cr    -1.73721484    1.84804567   -0.16138824       8
Cr    -0.06784886   -1.88581673    1.70774829       9
Ni     0.03707966    1.95876051    1.76530268      10
Ni    -1.70470027   -0.01764738   -1.79401795      11
Cr     1.73776212   -0.01801147    1.67624962      12
Co     1.78416668   -0.00383956   -1.75446554      13
Ni     0.03065272   -1.76824188   -1.78778752      14
Cr     0.07091781    1.73394221   -1.81803808      15
Co     1.72953773   -1.72555469    0.01854270      16
Ni     1.77564547    1.78220933   -0.02934606      17
Co    -0.63327860    0.01768366    0.63632669      18
          18
Lattice="  24.8920   0.0000   0.0000   0.0000  24.8920   0.0000   0.0000   0.0000  24.8920 " ConfE="      -5949.7602" DelE="         -0.1273"
Ni    -3.52943960   -0.01669481   -0.05972858       1
Cr     0.00742640   -0.00135571    3.50067447       2
Cr     3.60572961   -0.00282380   -0.00688154       3
Co     0.03358647    0.01134715   -3.63097387       4
Co     0.01428580   -3.56716799   -0.04432797       5
Ni     0.04230862    3.56989661   -0.08196477       6
Ni    -1.72194872   -1.76639148   -0.05510077       7
Cr    -1.70137303    1.75648266   -0.16332861       8
Cr     0.00788507   -1.71443990    1.67205767       9
Ni     0.02409834    1.74495847    1.65776827      10
Ni    -1.69989709   -0.01060778   -1.81753705      11
Cr     1.73894728   -0.04463252    1.65366150      12
Co     1.79963386   -0.00405702   -1.77894729      13
Ni     0.04588685   -1.75743936   -1.80599825      14
Cr     0.07749219    1.74165072   -1.86096053      15
Co     1.76465415   -1.73021381   -0.01068275      16
Ni     1.79235716    1.76019482   -0.06478693      17
Co    -1.70723620    0.00345334    1.70705285      18
