          18
Lattice="  24.8920   0.0000   0.0000   0.0000  24.8920   0.0000   0.0000   0.0000  24.8920 " ConfE="      -5933.9256" DelE="          0.0000"
Ni     0.08729229   -3.58064450   -0.01139746       1
Cr     3.65037713   -0.06829486   -0.03139055       2
Cr     0.09346756    3.49158394   -0.00039499       3
Cr    -3.47647983   -0.00093387   -0.04616315       4
Cr     0.10097981    0.00464562    3.50330424       5
Cr     0.03620588   -0.05500807   -3.51371172       6
Ni     1.82997410   -0.08520251   -1.70635844       7
Ni     1.80278193   -0.05457363    1.68481554       8
Ni     0.08887790   -1.81130376    1.73086329       9
Ni     0.08127461   -1.80701676   -1.73325905      10
Ni     1.86389622    1.76347256   -0.02776673      11
Ni    -1.72971281   -1.82919022   -0.01469563      12
Ni    -1.73442628    1.77267338   -0.00709764      13
Ni    -1.72354135   -0.02850222    1.76102451      14
Ni     0.05103427    1.73879019   -1.77805308      15
Co    -1.77209677   -0.04361147   -1.78086376      16
Co     0.08713451    1.75501247    1.74695332      17
Cr     0.00000000    0.00000000    0.00000000      18
          18
Lattice="  24.8920   0.0000   0.0000   0.0000  24.8920   0.0000   0.0000   0.0000  24.8920 " ConfE="      -5932.8402" DelE="          1.0853"
Ni     0.10641629   -3.50242908   -0.01550628       1
Cr     3.56017947   -0.10950300   -0.05958464       2
Cr     0.10989614    3.47888504   -0.01130728       3
Cr    -3.47127353    0.00105629   -0.01951237       4
Cr     0.04426681    0.02949022    3.61728279       5
Cr    -0.00634548   -0.01474179   -3.65838801       6
Ni     1.83433270   -0.00567889   -1.96218804       7
Ni     1.82843839   -0.01210771    1.86780556       8
Ni     0.07047413   -1.82227418    1.87554642       9
Ni     0.01738464   -1.82809101   -1.93710576      10
Ni     1.84007331    1.66762271   -0.03266634      11
Ni    -1.63090283   -1.75862117   -0.01583619      12
Ni    -1.65525475    1.69733737   -0.00933151      13
Ni    -1.64414933   -0.03046406    1.75857429      14
Ni     0.06040733    1.67769546   -1.77825298      15
Co    -1.74044121   -0.05457727   -1.79575723      16
Co     0.10941195    1.73055355    1.75122133      17
Cr     0.87530697   -0.84442314   -0.06146177      18
          18
Lattice="  24.8920   0.0000   0.0000   0.0000  24.8920   0.0000   0.0000   0.0000  24.8920 " ConfE="      -5933.9459" DelE="         -0.0204"
Ni     0.07234909   -3.60126666   -0.01470405       1
Cr     3.66302665   -0.01544546   -0.06006169       2
Cr     0.09562903    3.50541036    0.00437502       3
Cr    -3.49266661    0.00789744   -0.03521305       4
Cr     0.09933407    0.01022043    3.52839659       5
Cr     0.02718477   -0.03716563   -3.55558288       6
Ni     1.79340705   -0.02395622   -1.74159382       7
Ni     1.80725994   -0.03554541    1.70134427       8
Ni     0.09168629   -1.78158440    1.72106540       9
Ni     0.06553271   -1.77394035   -1.74085804      10
Ni     1.85075519    1.74118052   -0.02458869      11
Ni    -1.69066383   -1.78928377   -0.01914589      12
Ni    -1.69669522    1.73591688   -0.00710379      13
Ni    -1.67988074   -0.02387466    1.74153277      14
Ni     0.04053625    1.72706131   -1.75998847      15
Co    -1.76559774   -0.04031494   -1.77524296      16
Co     0.09808887    1.75166408    1.73532352      17
Cr     1.91518663   -1.80315113   -0.07415523      18
