          18
Lattice="  24.8920   0.0000   0.0000   0.0000  24.8920   0.0000   0.0000   0.0000  24.8920 " ConfE="      -5924.3763" DelE="          0.0000"
Ni     3.47882601   -0.06327503    0.06650591       1
Co    -0.09272245   -0.09800209   -3.46605344       2
Co    -0.03268191   -3.62705431    0.05279398       3
Cr     0.08651740    3.40289573   -0.01883469       4
Co    -3.59381097   -0.05454257    0.02053522       5
Co    -0.04687421   -0.04746847    3.58263499       6
Ni     0.00602524   -1.80497895   -1.71916296       7
Ni     1.74605205   -1.78891158    0.02919635       8
Co    -0.03170621    1.63560957   -1.70870486       9
Co     1.72565439    1.66718284    0.02433962      10
Ni    -1.79163892   -1.81036889    0.04237222      11
Ni    -0.02965451   -1.81112572    1.80524030      12
Cr    -1.84119232   -0.02851143   -1.74792223      13
Cr     1.74384470   -0.05231810    1.87001722      14
Co    -1.81786980    1.68178603    0.04161614      15
Cr    -0.02441393    1.72379526    1.80749419      16
Cr    -1.82127308   -0.03637156    1.85374899      17
Cr     0.00000000    0.00000000    0.00000000      18
          18
Lattice="  24.8920   0.0000   0.0000   0.0000  24.8920   0.0000   0.0000   0.0000  24.8920 " ConfE="      -5923.5280" DelE="          0.8482"
Ni     3.42265909   -0.05932352    0.06518060       1
Co    -0.08842037   -0.09145075   -3.38454049       2
Co    -0.05973259   -3.71293324    0.06876513       3
Cr    -0.00824425    3.59320273    0.01636178       4
Co    -3.59811920   -0.06123051    0.00462911       5
Co    -0.03414550   -0.05056033    3.57559142       6
Ni    -0.01591084   -1.92876184   -1.71079444       7
Ni     1.74963279   -1.91292477    0.06212544       8
Co    -0.08698991    1.86840572   -1.72985021       9
Co     1.77919060    1.87853688    0.08437555      10
Ni    -1.75874954   -1.82346902    0.03789630      11
Ni    -0.02143397   -1.81175706    1.77493212      12
Cr    -1.74601183   -0.04349904   -1.66043694      13
Cr     1.68459440   -0.04869464    1.78780644      14
Co    -1.73217248    1.62319484    0.03084259      15
Cr     0.03071783    1.67985540    1.67064150      16
Cr    -1.72500589   -0.01404900    1.74316602      17
Cr     0.90475242    0.08165083   -0.90318816      18
          18
Lattice="  24.8920   0.0000   0.0000   0.0000  24.8920   0.0000   0.0000   0.0000  24.8920 " ConfE="      -5924.1289" DelE="          0.2473"
Ni     3.49212805   -0.06709882    0.09411810       1
Co    -0.09181753   -0.10061049   -3.50759066       2
Co    -0.04983820   -3.67364253    0.06156226       3
Cr     0.02976310    3.53963592    0.00827245       4
Co    -3.60660675   -0.05015847    0.02020922       5
Co    -0.05326011   -0.05446709    3.60928296       6
Ni    -0.01959606   -1.83615226   -1.70386646       7
Ni     1.71661197   -1.81889557    0.05603991       8
Co    -0.03877555    1.65624388   -1.68703326       9
Co     1.69599121    1.69075744    0.06141169      10
Ni    -1.77316082   -1.80687145    0.04857966      11
Ni    -0.03602283   -1.81630219    1.80299506      12
Cr    -1.68231924    0.00547578   -1.63093242      13
Cr     1.62297230   -0.02307164    1.75579915      14
Co    -1.75007627    1.64848438    0.06719582      15
Cr    -0.02053338    1.73707951    1.78106955      16
Cr    -1.71558474   -0.01593606    1.76765650      17
Cr     1.60797033   -0.00544151   -1.62918933      18
