          18
Lattice="  24.8920   0.0000   0.0000   0.0000  24.8920   0.0000   0.0000   0.0000  24.8920 " ConfE="      -5948.1780" DelE="          0.0000"
Ni    -0.03216897   -3.51509426    0.02459280       1
Ni    -0.01845188   -0.03482310    3.49769723       2
Ni    -0.06138169    0.01370587   -3.59163037       3
Co    -3.58682067   -0.00178673    0.01325484       4
Cr    -0.01454876    3.53610805   -0.05767257       5
Co     3.50539068   -0.00553941   -0.03502887       6
Ni    -1.76662996   -1.74440284    0.01470615       7
Co    -1.81402309    0.00914822    1.78936895       8
Ni    -0.02531688    1.78503488    1.76062945       9
Cr     1.67156970   -0.05952839    1.66243554      10
Co     1.72624685   -1.76686605   -0.02144603      11
Ni    -1.80344685    1.74076743   -0.02059040      12
Co     0.00347458   -1.77466210   -1.83732845      13
Co    -1.81583748    0.00767731   -1.83430951      14
Co     1.76003303   -0.04721065   -1.81116920      15
Co    -0.02633823    1.77240022   -1.80521133      16
Cr     1.71461404    1.69446103   -0.13955680      17
Co     0.00000000    0.00000000    0.00000000      18
          18
Lattice="  24.8920   0.0000   0.0000   0.0000  24.8920   0.0000   0.0000   0.0000  24.8920 " ConfE="      -5947.4878" DelE="          0.6902"
Ni    -0.03894216   -3.46281506    0.03721086       1
Ni    -0.03460657   -0.03863735    3.50639469       2
Ni    -0.07190138    0.00061038   -3.61319715       3
Co    -3.64646370    0.01525887   -0.00536796       4
Cr    -0.01665297    3.52222364   -0.03702075       5
Co     3.55920699    0.00400849   -0.05153300       6
Ni    -1.88819896   -1.73989474   -0.01715300       7
Co    -1.99334929    0.07310022    1.85054614       8
Ni    -0.03833030    1.70414161    1.74923366       9
Cr     1.88370404    0.05974757    1.74755716      10
Co     1.87463446   -1.82072257   -0.11498726      11
Ni    -1.76775148    1.67379167   -0.02312907      12
Co    -0.01503453   -1.71872542   -1.76294890      13
Co    -1.83322220   -0.00325716   -1.83935447      14
Co     1.74460350   -0.05808333   -1.80395333      15
Co    -0.03477330    1.72375723   -1.79205313      16
Cr     1.59657680    1.54128087   -0.15064356      17
Co     0.04943856   -0.83005821    0.97539857      18
          18
Lattice="  24.8920   0.0000   0.0000   0.0000  24.8920   0.0000   0.0000   0.0000  24.8920 " ConfE="      -5948.0798" DelE="          0.0982"
Ni    -0.02977550   -3.55604459   -0.00532026       1
Ni    -0.01638908   -0.00748344    3.55672980       2
Ni    -0.06281430    0.01233021   -3.60961232       3
Co    -3.59649777    0.00150474    0.00464416       4
Cr    -0.01635178    3.55726154   -0.05234804       5
Co     3.51723753   -0.00510028   -0.04139802       6
Ni    -1.74109221   -1.70472926   -0.03527900       7
Co    -1.81897934    0.01589361    1.78738248       8
Ni    -0.01707319    1.72282556    1.73049135       9
Cr     1.65249652   -0.06354693    1.62964663      10
Co     1.70122308   -1.73826552   -0.03630404      11
Ni    -1.75907280    1.69961946   -0.03121809      12
Co     0.00519986   -1.75925602   -1.82450070      13
Co    -1.80911670    0.01253941   -1.84657623      14
Co     1.71913025   -0.03749842   -1.77672051      15
Co    -0.02322332    1.75069623   -1.78886086      16
Cr     1.65308569    1.63950242   -0.16164476      17
Co    -0.03939676   -1.74846094    1.76028102      18
