          18
Lattice="  24.8920   0.0000   0.0000   0.0000  24.8920   0.0000   0.0000   0.0000  24.8920 " ConfE="      -5936.5975" DelE="          0.0000"
Co    -0.00072881   -0.03296048   -3.55887616       1
Ni     3.50808553    0.00833840   -0.01588089       2
Co     0.00674680   -3.45741765    0.01395334       3
Ni    -0.00451086    0.04729326    3.62513781       4
Co    -3.54138633    0.08468123    0.04162742       5
Cr     0.00506975    3.58036268    0.01662475       6
Ni     1.73180465   -0.03558066   -1.76322923       7
Ni    -1.76153329   -0.00639255   -1.75124846       8
Cr     1.66448284   -1.80329582    0.00784035       9
Ni    -0.00393496   -1.70466797    1.84619260      10
Cr    -1.70002075   -1.72496284   -0.01994773      11
Ni    -1.77304465    0.05929770    1.80383420      12
Co     1.77940172    0.05449996    1.77049294      13
Cr    -0.00512189    1.83469013   -1.72939239      14
Co     1.73163528    1.82735550   -0.00725316      15
Co    -0.01860998    1.83522340    1.75614861      16
Co    -1.77367979    1.81432407    0.00235232      17
Co     0.00000000    0.00000000    0.00000000      18
          18
Lattice="  24.8920   0.0000   0.0000   0.0000  24.8920   0.0000   0.0000   0.0000  24.8920 " ConfE="      -5936.0000" DelE="          0.5976"
Co     0.00947296   -0.03964321   -3.50596282       1
Ni     3.56148724    0.03140620   -0.00776110       2
Co     0.00410893   -3.44717477    0.01461803       3
Ni    -0.01054884    0.03850627    3.59773396       4
Co    -3.60351494    0.10167062    0.05220325       5
Cr    -0.00040195    3.60873674   -0.00230193       6
Ni     1.86448667    0.00031547   -1.78571015       7
Ni    -1.86500246    0.02242774   -1.75233988       8
Cr     1.89963078   -1.87875609    0.07221299       9
Ni    -0.01362169   -1.69377789    1.77975632      10
Cr    -1.92845845   -1.79177463    0.01867876      11
Ni    -1.76581484    0.04176334    1.74552674      12
Co     1.74256336    0.03015122    1.68539265      13
Cr     0.00749103    1.73233616   -1.63364713      14
Co     1.72469654    1.81757047   -0.02543568      15
Co    -0.02226923    1.80291585    1.70062602      16
Co    -1.77787998    1.81030317   -0.00463280      17
Co     0.02386022   -0.82516612   -0.57958220      18
          18
Lattice="  24.8920   0.0000   0.0000   0.0000  24.8920   0.0000   0.0000   0.0000  24.8920 " ConfE="      -5936.7710" DelE="         -0.1735"
Co     0.00392981    0.01241369   -3.58408045       1
Ni     3.53292130    0.02958605   -0.01262950       2
Co     0.01688151   -3.54151905    0.03922224       3
Ni    -0.00328583    0.04764961    3.61738104       4
Co    -3.56039632    0.10304079    0.04355542       5
Cr     0.00055521    3.62781582    0.01601009       6
Ni     1.73413836    0.03010793   -1.73168941       7
Ni    -1.75583262    0.04980464   -1.72559631       8
Cr     1.69711756   -1.76478549    0.01568557       9
Ni    -0.00159463   -1.65613337    1.75121219      10
Cr    -1.71696042   -1.70658891   -0.03070948      11
Ni    -1.75068696    0.06963009    1.76136576      12
Co     1.76725729    0.07164201    1.73561981      13
Cr    -0.00228950    1.81788788   -1.68333760      14
Co     1.68409152    1.81465765   -0.01030108      15
Co    -0.02216824    1.83876221    1.72981767      16
Co    -1.74607578    1.81610458   -0.00000418      17
Co    -0.00808458   -1.70160655   -1.70913331      18
