          18
Lattice="  24.8920   0.0000   0.0000   0.0000  24.8920   0.0000   0.0000   0.0000  24.8920 " ConfE="      -5933.7078" DelE="          0.0000"
Ni    -0.05063740    0.09768439    3.50495189       1
Ni    -3.54086243    0.07823141   -0.04717167       2
Ni     0.00787001    0.06551517   -3.59574831       3
Ni     3.46651346    0.03712460   -0.00870104       4
Cr    -0.03977370   -3.51771310    0.02625314       5
Co    -0.00645383    3.66986373   -0.03858164       6
Ni    -1.78980448    0.08091336    1.73041321       7
Ni    -0.05461834    1.89893185    1.72750314       8
Ni    -0.01710677    1.85779351   -1.80644442       9
Cr     1.68371417    0.04866900    1.77299390      10
Cr    -1.67813305   -1.68733344    0.03638812      11
Cr     1.60046660   -1.73866983    0.09311809      12
Ni    -0.02122666   -1.71651266   -1.85272363      13
Co    -1.77676970    1.86586536   -0.07088250      14
Cr     1.70748267    1.88521661   -0.00772943      15
Co    -1.75858156    0.05671045   -1.80983441      16
Cr     1.72978557    0.06519378   -1.74151109      17
Co     0.00000000    0.00000000    0.00000000      18
          18
Lattice="  24.8920   0.0000   0.0000   0.0000  24.8920   0.0000   0.0000   0.0000  24.8920 " ConfE="      -5933.0635" DelE="          0.6444"
Ni    -0.05235588    0.08788564    3.48217876       1
Ni    -3.63715916    0.12213809   -0.06270351       2
Ni     0.00740720    0.05376260   -3.57749862       3
Ni     3.55040713    0.06503452   -0.02343978       4
Cr    -0.05606024   -3.52089148    0.01300266       5
Co    -0.00793927    3.66747928   -0.02572825       6
Ni    -1.87838901    0.10958615    1.72382904       7
Ni    -0.05981519    1.84073114    1.69553302       8
Ni    -0.02746320    1.82920839   -1.77131113       9
Cr     1.77790619    0.06452566    1.76464354      10
Cr    -1.97588168   -1.65044774   -0.07471629      11
Cr     1.92552464   -1.76774499   -0.06246209      12
Ni    -0.02927718   -1.70288749   -1.76845773      13
Co    -1.79313880    1.84338703   -0.06831017      14
Cr     1.68065465    1.83194412    0.00788235      15
Co    -1.76102177    0.04752373   -1.76094387      16
Cr     1.64902535    0.06152563   -1.59093133      17
Co     0.02731929   -1.00329396    0.78109995      18
          18
Lattice="  24.8920   0.0000   0.0000   0.0000  24.8920   0.0000   0.0000   0.0000  24.8920 " ConfE="      -5933.6618" DelE="          0.0460"
Ni    -0.04414243    0.11286000    3.51683331       1
Ni    -3.58183653    0.09380144   -0.05796839       2
Ni     0.01669990    0.06147433   -3.58716769       3
Ni     3.50756275    0.04820053   -0.00791355       4
Cr    -0.03242299   -3.56762622   -0.00965370       5
Co    -0.01493328    3.69097702   -0.03605351       6
Ni    -1.78061302    0.10406657    1.67664727       7
Ni    -0.05927206    1.87141112    1.69369132       8
Ni    -0.02345616    1.85666537   -1.78962598       9
Cr     1.65715593    0.08618872    1.68081229      10
Cr    -1.70932130   -1.63708653   -0.04459982      11
Cr     1.63377633   -1.71677938    0.03778508      12
Ni    -0.01556716   -1.70259280   -1.81253921      13
Co    -1.78351922    1.86723543   -0.08398957      14
Cr     1.68802651    1.88305576   -0.00577380      15
Co    -1.73633459    0.05701585   -1.76311580      16
Cr     1.64911879    0.08974814   -1.58868301      17
Co    -0.04142898   -1.69860306    1.68915233      18
