          18
Lattice="  24.8920   0.0000   0.0000   0.0000  24.8920   0.0000   0.0000   0.0000  24.8920 " ConfE="      -5927.8371" DelE="          0.0000"
Cr    -0.06666113   -0.05238843   -3.49467047       1
Ni     3.53847292    0.02018863    0.00551901       2
Ni    -0.03427926    0.03682837    3.55959307       3
Ni    -3.58803970   -0.03536341    0.00897340       4
Ni     0.00656595   -3.53263738    0.00716986       5
Ni    -0.00738861    3.55304622    0.01865813       6
Co     0.02510595   -1.73615000   -1.81079486       7
Ni     0.02149207    1.73101306   -1.73071093       8
Co     1.79209275   -1.70544346   -0.05803564       9
Cr     1.79066590    1.74565507   -0.00920775      10
Co    -1.83135615    0.00543100   -1.76960806      11
Co     1.75765877    0.03562700    1.79649531      12
Ni    -1.79956718    0.00493385    1.75177426      13
Co    -1.78362561   -1.81115328   -0.00475714      14
Cr    -1.83676489    1.78132649   -0.00989420      15
Co    -0.00234766   -1.77528701    1.79169601      16
Co    -0.00333513    1.78017161    1.76329831      17
Ni     0.00000000    0.00000000    0.00000000      18
          18
Lattice="  24.8920   0.0000   0.0000   0.0000  24.8920   0.0000   0.0000   0.0000  24.8920 " ConfE="      -5927.1677" DelE="          0.6694"
Cr    -0.05702277   -0.02063481   -3.42946498       1
Ni     3.50447359    0.01975728   -0.00184985       2
Ni    -0.02236397    0.04277715    3.54090037       3
Ni    -3.58461604   -0.04537681   -0.00043976       4
Ni     0.00196589   -3.60827788    0.02571533       5
Ni    -0.02182266    3.62391734    0.03602809       6
Co    -0.03044971   -1.89360689   -1.80997416       7
Ni    -0.06284160    1.89812275   -1.73452374       8
Co     1.86931657   -1.95041993    0.01616609       9
Cr     1.86958564    1.95903497    0.06379631      10
Co    -1.76660032    0.00069921   -1.74030499      11
Co     1.72166726    0.02717236    1.71482409      12
Ni    -1.74897904   -0.00298759    1.68924583      13
Co    -1.74298110   -1.81448907   -0.00938927      14
Cr    -1.81599921    1.76653295   -0.01136611      15
Co     0.02473227   -1.75890857    1.73549682      16
Co     0.00697359    1.74987692    1.67112596      17
Ni     0.98782486    0.02136624   -0.84000358      18
          18
Lattice="  24.8920   0.0000   0.0000   0.0000  24.8920   0.0000   0.0000   0.0000  24.8920 " ConfE="      -5927.7337" DelE="          0.1034"
Cr    -0.09508527   -0.03134715   -3.52305031       1
Ni     3.57294660    0.01097854    0.02620481       2
Ni    -0.03703429    0.04142489    3.56107341       3
Ni    -3.60449754   -0.04496699    0.00905418       4
Ni    -0.00154090   -3.56562180    0.01926461       5
Ni    -0.01584827    3.58691006    0.03169965       6
Co    -0.02179047   -1.75913929   -1.77270835       7
Ni    -0.01018600    1.73538020   -1.66124588       8
Co     1.74024718   -1.72814384    0.01533774       9
Cr     1.75626771    1.74589562    0.11253160      10
Co    -1.78913136    0.00624290   -1.73730825      11
Co     1.71371647    0.04684988    1.72287442      12
Ni    -1.77432214   -0.00207541    1.71113669      13
Co    -1.75453610   -1.79448498    0.00001376      14
Cr    -1.83408536    1.76217338   -0.00509747      15
Co    -0.01202641   -1.76359219    1.77726290      16
Co    -0.02001674    1.75157652    1.70000335      17
Ni     1.72510661    0.01036739   -1.69973847      18
