          18
Lattice="  24.8920   0.0000   0.0000   0.0000  24.8920   0.0000   0.0000   0.0000  24.8920 " ConfE="      -5922.7662" DelE="          0.0000"
Co    -3.64577814    0.15236714    0.11020181       1
Cr    -0.07679441    3.74913253    0.06896776       2
Ni     3.46284362    0.12251253    0.07395260       3
Cr    -0.03856164   -3.27141944    0.10685138       4
Co    -0.05922096    0.10499589   -3.44778242       5
Cr    -0.08081555    0.13106016    3.67240540       6
Ni    -1.88208367    0.14812571   -1.67042497       7
Ni    -1.82670107    0.18063769    1.79668532       8
Ni    -0.11530801    1.88117158   -1.62874379       9
Cr    -0.08017566    1.91565954    1.68049805      10
Ni    -1.87223299   -1.63937829    0.08482922      11
Cr     1.73641507    1.93015822    0.02641408      12
Co     1.69123741   -1.65717057    0.09045905      13
Co    -0.08497565   -1.65794916   -1.71698494      14
Co    -0.09884625   -1.61205251    1.88319920      15
Co     1.67843975    0.12515157   -1.68889838      16
Ni     1.68678203    0.12684471    1.85877167      17
Cr     0.00000000    0.00000000    0.00000000      18
          18
Lattice="  24.8920   0.0000   0.0000   0.0000  24.8920   0.0000   0.0000   0.0000  24.8920 " ConfE="      -5921.8621" DelE="          0.9041"
Co    -3.55817387    0.19452225    0.13377443       1
Cr    -0.07886251    3.70000788    0.06179110       2
Ni     3.44716576    0.13246743    0.08088411       3
Cr    -0.04098521   -3.30291180    0.13697510       4
Co    -0.04077578    0.10408495   -3.50853646       5
Cr    -0.05968854    0.11261872    3.75211641       6
Ni    -1.88998698    0.12164806   -1.79091409       7
Ni    -1.87896827    0.07384468    2.02489690       8
Ni    -0.08628052    1.92556487   -1.78114953       9
Cr    -0.05462097    1.97387026    1.90543873      10
Ni    -1.81743176   -1.57291020    0.09988826      11
Cr     1.67221410    1.89528102    0.00775122      12
Co     1.60142644   -1.59849791    0.09060226      13
Co    -0.08376786   -1.61254549   -1.68709407      14
Co    -0.10728277   -1.60134745    1.88921935      15
Co     1.62654559    0.16047955   -1.63655301      16
Ni     1.60637068    0.15563490    1.82535081      17
Cr    -0.88089942    0.92244315    0.14016312      18
          18
Lattice="  24.8920   0.0000   0.0000   0.0000  24.8920   0.0000   0.0000   0.0000  24.8920 " ConfE="      -5922.6029" DelE="          0.1633"
Co    -3.66871321    0.12246656    0.09818992       1
Cr    -0.05704047    3.75805374    0.06514767       2
Ni     3.45705231    0.11987737    0.07129232       3
Cr    -0.03137046   -3.30744703    0.11267033       4
Co    -0.04992554    0.09490330   -3.48640283       5
Cr    -0.07610958    0.11373192    3.69603835       6
Ni    -1.85600104    0.11690085   -1.68657053       7
Ni    -1.81851487    0.13771073    1.82868098       8
Ni    -0.08730998    1.85439835   -1.66648375       9
Cr    -0.05715255    1.91099074    1.74495538      10
Ni    -1.82149822   -1.60819139    0.08267469      11
Cr     1.63815876    1.85528757    0.01991967      12
Co     1.63104476   -1.63491650    0.07954218      13
Co    -0.06886461   -1.66039548   -1.70432161      14
Co    -0.10443875   -1.62036053    1.87495884      15
Co     1.66912015    0.11292283   -1.68232092      16
Ni     1.64533083    0.11681354    1.82934211      17
Cr    -1.80761657    1.84791371    0.08159994      18
