          18
Lattice="  24.8920   0.0000   0.0000   0.0000  24.8920   0.0000   0.0000   0.0000  24.8920 " ConfE="      -5923.2662" DelE="          0.0000"
Ni     0.04382694   -3.49226566    0.04775189       1
Co     0.05059932   -0.05323553    3.57712496       2
Cr     0.05843924    3.55040784    0.00617514       3
Co     0.03345844    0.03037096   -3.51689385       4
Co    -3.51972618   -0.01332356    0.03565792       5
Co     3.59799690    0.03724260    0.06909042       6
Co    -1.73114003   -1.73386229    0.06395678       7
Ni     1.79766802   -1.74404531    0.04510781       8
Co    -1.72476254   -0.08787832    1.82145907       9
Ni     1.74413486   -0.05479348    1.80577144      10
Ni     0.04227827   -1.76683379   -1.76909368      11
Ni     0.03342812    1.77872215    1.81049970      12
Ni     0.04362929    1.77502038   -1.74459119      13
Cr    -1.70203019   -0.03512059   -1.72555406      14
Co     1.81727250    0.04287410   -1.75882037      15
Ni    -1.74968669    1.76268380    0.03162954      16
Co     1.81505821    1.79035446    0.05031104      17
Co     0.00000000    0.00000000    0.00000000      18
          18
Lattice="  24.8920   0.0000   0.0000   0.0000  24.8920   0.0000   0.0000   0.0000  24.8920 " ConfE="      -5922.5012" DelE="          0.7650"
Ni     0.04629894   -3.45434508    0.06961421       1
Co     0.05778629   -0.07236810    3.48262530       2
Cr     0.04015467    3.57722182    0.01539395       3
Co     0.03514439    0.02444960   -3.49384124       4
Co    -3.59261561   -0.00281068    0.01919035       5
Co     3.67083111    0.04839352    0.05390865       6
Co    -1.89756048   -1.77577854    0.02173125       7
Ni     1.93620064   -1.75738450    0.03115703       8
Co    -1.91969763   -0.03450809    1.86490679       9
Ni     1.93329557    0.06656501    1.81040002      10
Ni     0.04504378   -1.72023334   -1.67910360      11
Ni     0.03990996    1.74371552    1.77939592      12
Ni     0.03728561    1.72978878   -1.68698624      13
Cr    -1.71149631   -0.05927916   -1.68993034      14
Co     1.81607191    0.04146184   -1.70574161      15
Ni    -1.72293755    1.68583951    0.04666146      16
Co     1.82397223    1.79515318    0.04404451      17
Co    -0.02447520   -0.73720385    0.81711638      18
          18
Lattice="  24.8920   0.0000   0.0000   0.0000  24.8920   0.0000   0.0000   0.0000  24.8920 " ConfE="      -5923.5668" DelE="         -0.3006"
Ni     0.04393132   -3.52560258    0.01143542       1
Co     0.06123992    0.01471884    3.60719779       2
Cr     0.04492949    3.59404409   -0.00002055       3
Co     0.03193370    0.03699428   -3.53239192       4
Co    -3.53890407   -0.00678967    0.02569239       5
Co     3.61837061    0.04156517    0.06409856       6
Co    -1.71761798   -1.69133946    0.04052942       7
Ni     1.79295755   -1.71977482    0.02771552       8
Co    -1.74267396   -0.04281441    1.80121707       9
Ni     1.77008998    0.01439490    1.77162552      10
Ni     0.03313108   -1.72062455   -1.72422562      11
Ni     0.03169518    1.75920439    1.77265297      12
Ni     0.03613289    1.74364789   -1.71122595      13
Cr    -1.70996042   -0.03163392   -1.75265263      14
Co     1.80441553    0.05656313   -1.74376402      15
Ni    -1.71965119    1.72503420    0.01505190      16
Co     1.80915303    1.79896775    0.03661329      17
Co     0.03541759   -1.75130824    1.80883874      18
