          18
Lattice="  24.8920   0.0000   0.0000   0.0000  24.8920   0.0000   0.0000   0.0000  24.8920 " ConfE="      -5934.0671" DelE="          0.0000"
Ni    -0.00775655    3.47081855    0.02197789       1
Ni     3.58390624   -0.02257975   -0.00464422       2
Ni     0.01726805   -3.60320066    0.01594784       3
Co    -3.47967981   -0.05943858    0.08836640       4
Cr     0.00728447    0.01588347   -3.57088413       5
Cr     0.10678327    0.01364931    3.59938996       6
Ni     0.02124119    1.74454975   -1.77143103       7
Ni    -1.77556226    0.01230719   -1.74539008       8
Co     0.00637318    1.75109687    1.80276449       9
Cr    -1.65373052    0.07319222    1.80831965      10
Ni     1.82409429    1.74226480    0.00903255      11
Co     1.78393287   -0.06286662   -1.80893889      12
Cr    -0.07487589   -1.78812364   -1.77680429      13
Cr     1.77190396   -0.01509480    1.80041928      14
Co     0.02253050   -1.78842760    1.82187919      15
Cr    -1.75046094   -1.79475460    0.04457670      16
Cr     1.78609787   -1.79540594   -0.02135051      17
Ni     0.00000000    0.00000000    0.00000000      18
          18
Lattice="  24.8920   0.0000   0.0000   0.0000  24.8920   0.0000   0.0000   0.0000  24.8920 " ConfE="      -5929.5158" DelE="          4.5513"
Ni    -0.08079366    3.48840185    0.01370654       1
Ni     3.34200614   -1.19058329    0.02442698       2
Ni    -0.03323481   -3.68191650   -0.00226763       3
Co    -3.41864092   -0.07896223    0.08860815       4
Cr    -0.06580236    0.01246188   -3.63458526       5
Cr     0.15320882    0.02054727    3.70211756       6
Ni    -0.04023203    1.78294355   -1.96792764       7
Ni    -0.93594423    0.18746726   -0.50191917       8
Co    -0.05276682    1.80520475    1.94825696       9
Cr    -1.49965011    0.05597440    1.83501554      10
Ni     3.42601801    0.97791651    0.02628340      11
Co     1.82063801   -0.05286187   -1.85555781      12
Cr    -0.23197883   -1.73014886   -1.88279464      13
Cr     1.73144137   -0.00158134    1.78473035      14
Co    -0.00038395   -1.78581884    1.91834816      15
Cr    -1.77179159   -1.90638225    0.08035634      16
Cr     1.11958878   -1.58449574   -0.07641576      17
Ni     1.21427902    1.47650304   -0.00128714      18
          18
Lattice="  24.8920   0.0000   0.0000   0.0000  24.8920   0.0000   0.0000   0.0000  24.8920 " ConfE="      -5933.9961" DelE="          0.0709"
Ni    -0.01262772    3.47009186    0.01821967       1
Ni     1.78874671   -1.78865773   -0.00930882       2
Ni     0.02058277   -3.60479682    0.02210230       3
Co    -3.45484972   -0.05417241    0.08621682       4
Cr     0.00220940    0.02436016   -3.59616978       5
Cr     0.11501571    0.01867574    3.63479673       6
Ni     0.01146897    1.73751704   -1.75875356       7
Ni    -1.76566304    0.01367643   -1.74307167       8
Co     0.01886784    1.76565284    1.80422212       9
Cr    -1.62264115    0.10271317    1.78121780      10
Ni     3.57655509   -0.02199137   -0.00533491      11
Co     1.76807330   -0.04656580   -1.81849115      12
Cr    -0.07073670   -1.78000090   -1.77501579      13
Cr     1.76324188   -0.01182298    1.80528823      14
Co     0.02055117   -1.79173810    1.83315882      15
Cr    -1.73547834   -1.79578292    0.04280319      16
Cr    -0.01214773   -0.00331093    0.03069927      17
Ni     1.81867100    1.73919720    0.00877193      18
