          18
Lattice="  24.8920   0.0000   0.0000   0.0000  24.8920   0.0000   0.0000   0.0000  24.8920 " ConfE="      -5940.9408" DelE="          0.0000"
Cr    -3.47047809   -0.03057616   -0.06458702       1
Cr    -0.02745476   -3.55210861   -0.00010616       2
Co     3.57313163    0.07378142   -0.02373291       3
Co     0.02349711    3.63366946   -0.01225742       4
Ni     0.04272599    0.04867826   -3.52518807       5
Cr     0.02196224    0.05382278    3.54550239       6
Co    -1.76199550    0.02677185   -1.74612025       7
Ni    -1.74782129    0.00792020    1.74186898       8
Ni    -0.01681513   -1.75990432   -1.71988650       9
Cr     0.02540830   -1.79695842    1.70576036      10
Co    -1.80417333    1.85366694    0.01174119      11
Co     1.82413473   -1.76589158    0.00697887      12
Co     1.82351439    1.85777739   -0.03162083      13
Cr     0.01181629    1.81500397   -1.70283254      14
Cr     0.03965576    1.87137383    1.69924178      15
Cr     1.82555819    0.02912281   -1.73654135      16
Ni     1.78927138    0.02237982    1.75375124      17
Ni     0.00000000    0.00000000    0.00000000      18
          18
Lattice="  24.8920   0.0000   0.0000   0.0000  24.8920   0.0000   0.0000   0.0000  24.8920 " ConfE="      -5940.2757" DelE="          0.6651"
Cr    -3.43331430   -0.07637058   -0.05710804       1
Cr    -0.04542052   -3.48542214    0.00188245       2
Co     3.59176227    0.05566067   -0.02642303       3
Co     0.00880263    3.63020114   -0.01134202       4
Ni     0.05907597    0.06774769   -3.58213766       5
Cr     0.04102063    0.18695608    3.56673649       6
Co    -1.77024129    0.08373564   -1.89082582       7
Ni    -1.81610467    0.07437286    1.91216972       8
Ni     0.03291969   -1.78461354   -1.91460858       9
Cr     0.07892532   -1.76094827    1.98247487      10
Co    -1.81198641    1.78150055    0.01859646      11
Co     1.73027196   -1.72426853    0.00007384      12
Co     1.80903560    1.81601914   -0.03748613      13
Cr     0.01121902    1.69224310   -1.57043843      14
Cr     0.02481475    1.73838853    1.56055014      15
Cr     1.76844734    0.00081733   -1.70291662      16
Ni     1.78890888    0.02647324    1.74059020      17
Ni    -0.78202851   -0.84860239    0.03642012      18
          18
Lattice="  24.8920   0.0000   0.0000   0.0000  24.8920   0.0000   0.0000   0.0000  24.8920 " ConfE="      -5940.9836" DelE="         -0.0429"
Cr    -3.54487193    0.00494568   -0.03980058       1
Cr     0.01580927   -3.61184517   -0.00196884       2
Co     3.59745668    0.07499782   -0.02718823       3
Co     0.02098830    3.65376542   -0.01088159       4
Ni     0.04938951    0.05876278   -3.53593923       5
Cr     0.03004160    0.08147485    3.56987059       6
Co    -1.72417225    0.05807228   -1.74725697       7
Ni    -1.71025694    0.03654164    1.73106048       8
Ni     0.02556546   -1.72021928   -1.72860327       9
Cr     0.08211993   -1.72792403    1.66961223      10
Co    -1.79614117    1.81909053    0.01371887      11
Co     1.77348466   -1.73270496   -0.00019123      12
Co     1.82313483    1.84935188   -0.03924598      13
Cr     0.00952313    1.71480788   -1.55595390      14
Cr     0.04341005    1.80819635    1.59563640      15
Cr     1.79955642    0.04521842   -1.70890806      16
Ni     1.76222338    0.04336439    1.70661390      17
Ni    -1.71601601   -1.73714401   -0.00891158      18
