          19
Lattice="  24.8920   0.0000   0.0000   0.0000  24.8920   0.0000   0.0000   0.0000  24.8920 " ConfE="      -5942.6070" DelE="          0.0000"
Ni    -2.49198266    2.53354531    0.05584874       1
Cr     3.58462854   -0.04028463   -0.03981396       2
Cr     0.09434814   -3.63945970    0.02955593       3
Co    -3.46878195   -0.03638642   -0.01548576       4
Co     0.00525936    3.46182528   -0.01377688       5
Ni     0.07905017   -0.09359509   -3.56334801       6
Cr     0.05248074   -0.06479721    3.55592370       7
Ni     0.07658592    1.75278728   -1.85322053       8
Co     0.03646662    1.69430254    1.79888881       9
Ni    -1.69604542   -0.02915558   -1.79422506      10
Co    -1.71571349   -0.04551924    1.80122059      11
Ni     1.81356411   -1.81427523   -0.01533210      12
Co     1.89438239   -0.06168194   -1.77036471      13
Cr     1.81635124   -0.02933708    1.77403063      14
Ni     0.04957795   -1.83091652   -1.78081091      15
Cr     0.04925723   -1.81464729    1.77637587      16
Ni     1.82628955    1.72836812   -0.04464406      17
Cr    -1.74987231   -1.85089951   -0.02004093      18
Ni     0.00000000    0.00000000    0.00000000      19
          19
Lattice="  24.8920   0.0000   0.0000   0.0000  24.8920   0.0000   0.0000   0.0000  24.8920 " ConfE="      -5941.9865" DelE="          0.6205"
Ni    -2.63374554    2.71039575    0.03229863       1
Cr     3.58918500   -0.03725476   -0.03546540       2
Cr     0.08968196   -3.64520419    0.03232560       3
Co    -3.44802264   -0.03425376   -0.01877472       4
Co    -0.00150711    3.43164212    0.00422534       5
Ni     0.09053306   -0.10859469   -3.60983006       6
Cr     0.05677465   -0.09388798    3.61502383       7
Ni     0.11932753    1.78534485   -1.97568747       8
Co     0.12943391    1.69549793    1.98538026       9
Ni    -1.71817950   -0.06333526   -1.91141025      10
Co    -1.73780348   -0.07872620    1.93343331      11
Ni     1.76592631   -1.77351061   -0.00845245      12
Co     1.87048905   -0.04546794   -1.76139097      13
Cr     1.78191914   -0.03455045    1.76725580      14
Ni     0.04183733   -1.81031640   -1.77937568      15
Cr     0.02837955   -1.77126468    1.75863729      16
Ni     1.76398951    1.69275610   -0.03123488      17
Cr    -1.70452957   -1.74605517   -0.01112812      18
Ni    -0.72995170    0.82285604    0.01045406      19
          19
Lattice="  24.8920   0.0000   0.0000   0.0000  24.8920   0.0000   0.0000   0.0000  24.8920 " ConfE="      -5943.1634" DelE="         -0.5564"
Ni    -3.45324580    3.45779523   -0.01708187       1
Cr     3.61439213   -0.04950372   -0.03679023       2
Cr     0.10754480   -3.66543475    0.03648098       3
Co    -3.51924889   -0.09394142   -0.01956934       4
Co     0.05880477    3.52178820   -0.00721368       5
Ni     0.08802194   -0.09615501   -3.56357544       6
Cr     0.06153552   -0.07988367    3.58952912       7
Ni     0.10605941    1.73674670   -1.83129844       8
Co     0.11033511    1.59910720    1.76760786       9
Ni    -1.64876680   -0.05692183   -1.75809481      10
Co    -1.65240284   -0.10715118    1.74843285      11
Ni     1.79320212   -1.78975547    0.00272199      12
Co     1.90124814   -0.06168417   -1.74948623      13
Cr     1.81276509   -0.04698034    1.76518873      14
Ni     0.06124796   -1.81569315   -1.74552488      15
Cr     0.05539003   -1.80410394    1.76159616      16
Ni     1.82195806    1.68839404   -0.03771722      17
Cr    -1.71054436   -1.81614841   -0.00363051      18
Ni    -1.65870013    1.66191508   -0.00676831      19
