          18
Lattice="  24.8920   0.0000   0.0000   0.0000  24.8920   0.0000   0.0000   0.0000  24.8920 " ConfE="      -5948.8926" DelE="          0.0000"
Ni    -0.01583733   -3.48869489    0.01556253       1
Ni    -0.03133528    0.02451294    3.58064417       2
Ni    -0.03223416    3.59323556    0.04506853       3
Co     3.46608245    0.05075930    0.03472025       4
Cr    -0.03328868    0.10770819   -3.49775048       5
Cr    -3.55515958    0.06291817   -0.02553145       6
Ni     1.72536863   -0.00108117    1.77294013       7
Ni    -1.81751636   -1.74373082    0.01538103       8
Cr     0.01270112   -1.66735215   -1.70840302       9
Cr     1.81499898    0.03436096   -1.68191294      10
Cr    -0.03122128   -1.69586547    1.73921714      11
Ni    -0.01621302    1.81986337   -1.72919457      12
Co    -1.80627274    0.06855158   -1.72133835      13
Co    -1.78608251    1.79630070    0.05929509      14
Cr    -1.78494773    0.05334999    1.78809790      15
Cr     1.75370263    1.83661824    0.04538457      16
Cr    -0.05114863    1.74613889    1.78971891      17
Co     0.00000000    0.00000000    0.00000000      18
          18
Lattice="  24.8920   0.0000   0.0000   0.0000  24.8920   0.0000   0.0000   0.0000  24.8920 " ConfE="      -5947.8303" DelE="          1.0623"
Ni    -0.01196865   -3.43362270    0.00114654       1
Ni    -0.04024582    0.05243801    3.61798925       2
Ni    -0.02927671    3.50666658    0.01317119       3
Co     3.47698016    0.04281157    0.06361966       4
Cr    -0.06528864    0.17976633   -3.50986898       5
Cr    -3.62394169    0.05589771   -0.02572608       6
Ni     1.80164023    0.06294718    1.93759129       7
Ni    -1.76883440   -1.68330978    0.00083951       8
Cr    -0.11509558   -1.60308132   -1.85814039       9
Cr     2.03292697    0.07581866   -1.85891244      10
Cr    -0.06238267   -1.63878442    1.85574617      11
Ni     0.08176979    1.22264428   -1.18518325      12
Co    -1.93987042    0.06515378   -1.73932668      13
Co    -1.91418036    1.77570938    0.04805044      14
Cr    -1.73556693    0.08590138    1.68634265      15
Cr     1.89348453    1.77088898    0.11245281      16
Cr    -0.01228026    1.65494467    1.69459152      17
Co     1.04886602   -0.92878365   -0.05543464      18
          18
Lattice="  24.8920   0.0000   0.0000   0.0000  24.8920   0.0000   0.0000   0.0000  24.8920 " ConfE="      -5948.3060" DelE="          0.5867"
Ni    -0.04081358   -3.50157683    0.00042619       1
Ni    -0.03919296    0.04030161    3.56773078       2
Ni    -0.03534038    3.47833133    0.00012607       3
Co     3.54696259    0.06379210    0.05628181       4
Cr    -0.03433930    0.20051407   -3.39322534       5
Cr    -3.64700617    0.07837051   -0.02633269       6
Ni     1.76055366    0.05070138    1.79319613       7
Ni    -1.81750404   -1.69522033    0.00007720       8
Cr    -0.02509979   -1.54415968   -1.64711133       9
Cr     2.02525327    0.05020261   -1.75162038      10
Cr    -0.03510706   -1.56695509    1.63333104      11
Ni     0.06572511    0.96414202   -0.86231091      12
Co    -1.98229268    0.08700043   -1.72236448      13
Co    -1.97784833    1.79213197    0.05043471      14
Cr    -1.78777964    0.10901704    1.70339387      15
Cr     1.95428290    1.85439608    0.06986994      16
Cr    -0.04022752    1.68332998    1.71639539      17
Co     1.66207645   -1.63005567   -0.02685964      18
