          19
Lattice="  24.8920   0.0000   0.0000   0.0000  24.8920   0.0000   0.0000   0.0000  24.8920 " ConfE="      -5940.7266" DelE="          0.0000"
Co     0.02761245    3.55150597   -0.00461968       1
Ni    -3.49084203    0.01728426   -0.01384418       2
Ni     3.52649852    0.01437960    0.01225525       3
Co     1.07515437    1.76410851   -2.77465747       4
Co    -0.00507478   -3.62497269    0.01864707       5
Cr     0.00339298   -0.19850661   -3.49151717       6
Co     0.02083903   -0.00207361    3.61327208       7
Ni    -1.72327559    1.79404044   -0.00873121       8
Ni     0.00465197    1.77952474    1.83075728       9
Ni    -1.75032302    0.00585418    1.80969525      10
Co    -1.65108050   -0.01720201   -1.83043917      11
Ni     1.75586482    0.00436665    1.79174661      12
Cr     1.63822470    1.79471973   -0.09777286      13
Co     1.77830346   -1.84153089    0.06470505      14
Cr     1.77607431   -0.19954961   -1.74628865      15
Co    -1.74721553   -1.83372374   -0.02300002      16
Cr    -0.02339420   -1.83102829    1.76681277      17
Cr     0.00730667   -1.93222475   -1.66532622      18
Ni     0.00000000    0.00000000    0.00000000      19
          19
Lattice="  24.8920   0.0000   0.0000   0.0000  24.8920   0.0000   0.0000   0.0000  24.8920 " ConfE="      -5940.0917" DelE="          0.6349"
Co     0.02120446    3.55433808   -0.00302179       1
Ni    -3.54300652    0.01298378   -0.00979202       2
Ni     3.56859398   -0.01103339    0.03317280       3
Co     1.19130381    1.75742094   -2.85552657       4
Co    -0.00448812   -3.64708431    0.01463831       5
Cr     0.01898011   -0.19088531   -3.40122112       6
Co     0.02162000    0.00068258    3.60604450       7
Ni    -1.83216438    1.82965816    0.04222246       8
Ni    -0.00212480    1.73893950    1.75514577       9
Ni    -1.75278436    0.00225735    1.77317951      10
Co    -1.84358637   -0.10175121   -1.88173144      11
Ni     1.75926114   -0.00540133    1.77312707      12
Cr     1.83308662    1.86736904    0.06947975      13
Co     1.78078609   -1.83149534    0.06457492      14
Cr     1.94696952   -0.25489661   -1.78352571      15
Co    -1.74244668   -1.80014420   -0.02609087      16
Cr    -0.02295012   -1.77277286    1.66740827      17
Cr     0.01898452   -1.85584946   -1.55305598      18
Ni     0.05499202    0.62730936   -0.72539479      19
          19
Lattice="  24.8920   0.0000   0.0000   0.0000  24.8920   0.0000   0.0000   0.0000  24.8920 " ConfE="      -5941.1379" DelE="         -0.4113"
Co    -0.00567183    3.60546121    0.01505901       1
Ni    -3.52541255    0.00870710   -0.00100294       2
Ni     3.55916380   -0.01007370    0.03205202       3
Co     1.76138733    1.75844665   -3.51531763       4
Co    -0.00147440   -3.63646974    0.00573577       5
Cr     0.01784057   -0.04565578   -3.52826873       6
Co     0.01575103   -0.00022781    3.62383757       7
Ni    -1.75522818    1.77456322    0.03742383       8
Ni     0.00057542    1.76151743    1.78837832       9
Ni    -1.72529694   -0.00748256    1.78157344      10
Co    -1.66615142   -0.07694274   -1.76495611      11
Ni     1.71941776   -0.00690283    1.77057303      12
Cr     1.72091183    1.77680857    0.02019537      13
Co     1.73612410   -1.78801783    0.04514739      14
Cr     1.74045089   -0.06558286   -1.73607898      15
Co    -1.71379109   -1.80611477   -0.00120466      16
Cr    -0.02522079   -1.79783185    1.70997892      17
Cr     0.02879564   -1.77977012   -1.59528133      18
Ni    -0.00270011    1.73819733   -1.71071135      19
