          18
Lattice="  24.8920   0.0000   0.0000   0.0000  24.8920   0.0000   0.0000   0.0000  24.8920 " ConfE="      -5936.9708" DelE="          0.0000"
Ni    -0.02200464   -3.50159571   -0.05558867       1
Co     3.39915440    0.00549312   -0.12662853       2
Cr    -3.64448329    0.07084998   -0.06014928       3
Cr    -0.08932979    3.65682086   -0.14000327       4
Cr    -0.05516046    0.06631766   -3.61057619       5
Co    -0.06835067    0.05177946    3.45420547       6
Ni     1.69650802    1.87891188   -0.07931123       7
Cr     1.69450243   -0.00702507   -1.74353816       8
Co     1.63583600    0.05649246    1.63703423       9
Co     0.00810616   -1.72583416   -1.81495859      10
Co    -0.08783058   -1.71680847    1.67716519      11
Ni    -1.85229833    1.83648656   -0.07799675      12
Cr    -1.82122119   -1.73010519   -0.05413922      13
Cr    -1.84388779   -0.00297938   -1.82256009      14
Co    -1.86661342    0.03289471    1.69038078      15
Co    -0.07818183    1.84308489   -1.83111813      16
Cr    -0.08989365    1.84530551    1.70119526      17
Cr     0.00000000    0.00000000    0.00000000      18
          18
Lattice="  24.8920   0.0000   0.0000   0.0000  24.8920   0.0000   0.0000   0.0000  24.8920 " ConfE="      -5936.5344" DelE="          0.4364"
Ni    -0.02095191   -3.47709448   -0.06570244       1
Co     3.36002024    0.01282769   -0.11405020       2
Cr    -3.61194332    0.06890990   -0.07588989       3
Cr    -0.07669988    3.65469960   -0.12470633       4
Cr    -0.14952498    0.05884300   -3.68916095       5
Co    -0.06082414    0.04822302    3.51395977       6
Ni     1.66555175    1.82869014   -0.07778883       7
Cr     1.62092334    0.14091404   -1.97751823       8
Co     1.67672535    0.11757124    1.80135597       9
Co    -0.02172386   -1.79359175   -1.92156174      10
Co    -0.07137858   -1.73692764    1.74755568      11
Ni    -1.82090038    1.82418482   -0.07446652      12
Cr    -1.77831227   -1.72013495   -0.05324305      13
Cr    -1.67554699   -0.01490842   -1.73610695      14
Co    -1.77403143    0.01798887    1.63803622      15
Co    -0.08383544    1.83752388   -1.83053095      16
Cr    -0.05800671    1.75620552    1.66989962      17
Cr     0.71014065   -0.61107805   -0.05116346      18
          18
Lattice="  24.8920   0.0000   0.0000   0.0000  24.8920   0.0000   0.0000   0.0000  24.8920 " ConfE="      -5936.8736" DelE="          0.0972"
Ni    -0.04307956   -3.56385419   -0.05703436       1
Co     3.44353315    0.04453366   -0.10346580       2
Cr    -3.61083980    0.07165985   -0.07115927       3
Cr    -0.08733378    3.66579122   -0.13559282       4
Cr    -0.08142976    0.07567194   -3.64401599       5
Co    -0.06854965    0.06040424    3.50603748       6
Ni     1.64146021    1.82915628   -0.06875431       7
Cr     1.56405714    0.06680909   -1.76179016       8
Co     1.58884907    0.08404282    1.64689444       9
Co    -0.04174482   -1.73816002   -1.84909508      10
Co    -0.09245218   -1.72080655    1.68473415      11
Ni    -1.82818421    1.83493373   -0.07642364      12
Cr    -1.68631523   -1.65936951   -0.02795137      13
Cr    -1.75385423    0.01547205   -1.77821938      14
Co    -1.81112281    0.04265289    1.65373319      15
Co    -0.09308103    1.85992995   -1.83900280      16
Cr    -0.09468555    1.87481944    1.70818982      17
Cr     1.54121890   -1.55653988   -0.00261036      18
