          18
Lattice="  24.8920   0.0000   0.0000   0.0000  24.8920   0.0000   0.0000   0.0000  24.8920 " ConfE="      -5936.0262" DelE="          0.0000"
Ni    -3.50830893    0.00704226   -0.00940639       1
Ni     3.58984791    0.05791786   -0.01913076       2
Cr     0.03898487   -3.44466575    0.02180132       3
Cr     0.02550288    3.61665254    0.03143681       4
Cr     0.01260473    0.05934706   -3.54146012       5
Co     0.04666849    0.01918518    3.56195613       6
Cr    -1.74970939    0.00786857   -1.69199054       7
Co    -1.72877941   -0.01171511    1.75021373       8
Ni     0.00966296    1.80805898   -1.76344268       9
Co     0.00281931   -1.74450401   -1.72164527      10
Cr    -0.01127554   -1.71523178    1.74054026      11
Ni     1.80376142    1.83027558   -0.00137318      12
Cr    -1.74422813    1.81582537    0.04408171      13
Cr     0.05919480    1.74850183    1.82840615      14
Cr     1.79892478    0.01061809   -1.79003006      15
Co     1.82029433    0.03184580    1.76522259      16
Cr     1.86423338   -1.73349534   -0.00923133      17
Co     0.00000000    0.00000000    0.00000000      18
          18
Lattice="  24.8920   0.0000   0.0000   0.0000  24.8920   0.0000   0.0000   0.0000  24.8920 " ConfE="      -5935.5049" DelE="          0.5214"
Ni    -3.50774225    0.00545686   -0.00713626       1
Ni     3.58705925    0.04709249   -0.02116187       2
Cr     0.06033008   -3.44790433    0.02564577       3
Cr     0.01368810    3.60694557    0.01872027       4
Cr     0.02261492    0.08884295   -3.64426834       5
Co     0.06154842    0.03898670    3.64176819       6
Cr    -1.75068798    0.02643107   -1.78857274       7
Co    -1.78487516    0.06416471    1.89326833       8
Ni     0.00643171    1.73514988   -1.75159849       9
Co     0.08791884   -1.77695986   -1.94805300      10
Cr     0.07266821   -1.65727862    1.94711269      11
Ni     1.75945632    1.77866915   -0.00686067      12
Cr    -1.67751483    1.67440384    0.05904531      13
Cr     0.03384240    1.64226039    1.81048217      14
Cr     1.74716412   -0.02951303   -1.77850348      15
Co     1.79225873    0.03152917    1.76072928      16
Cr     1.73460685   -1.65515611   -0.00048600      17
Co    -0.95486907   -1.07586261    0.02689771      18
          18
Lattice="  24.8920   0.0000   0.0000   0.0000  24.8920   0.0000   0.0000   0.0000  24.8920 " ConfE="      -5935.9577" DelE="          0.0685"
Ni    -3.54874357    0.03138350   -0.00761208       1
Ni     3.59170462    0.05361989   -0.02327512       2
Cr     0.08745166   -3.51515993    0.03178127       3
Cr     0.02743091    3.64073531    0.02864732       4
Cr     0.02074387    0.07486005   -3.59359457       5
Co     0.05428488    0.02662589    3.59043113       6
Cr    -1.70442880    0.02942871   -1.68797468       7
Co    -1.68560567    0.04952066    1.74627880       8
Ni     0.01100174    1.77120320   -1.73650999       9
Co     0.05406293   -1.70052095   -1.73730419      10
Cr     0.03376727   -1.67489519    1.74102557      11
Ni     1.77412656    1.80802066   -0.00455416      12
Cr    -1.70309234    1.75253942    0.05788407      13
Cr     0.05379759    1.71859900    1.80620691      14
Cr     1.76462404    0.00173484   -1.77391720      15
Co     1.77839496    0.03677908    1.73314457      16
Cr     1.78339717   -1.68504258   -0.00665089      17
Co    -1.65132409   -1.66605488    0.01098905      18
