          18
Lattice="  24.8920   0.0000   0.0000   0.0000  24.8920   0.0000   0.0000   0.0000  24.8920 " ConfE="      -5947.9304" DelE="          0.0000"
Cr    -0.04542071   -3.43677518   -0.01012077       1
Cr    -3.33302639   -0.07107255    0.00357578       2
Ni     0.04560534    3.63229112    0.02922846       3
Ni     3.61699941    0.03640297    0.00964535       4
Cr     0.07347281    0.05979656   -3.52701682       5
Co     0.06475137    0.06124769    3.55959652       6
Cr     0.06443445   -1.70562636   -1.76228611       7
Co     0.00937099   -1.75931665    1.73737126       8
Co    -1.69161355    0.02038673   -1.76059028       9
Cr    -1.61094855   -0.05768001    1.71617310      10
Co     1.83624380   -1.71129682    0.03903303      11
Co    -1.71917626    1.85501277    0.03128519      12
Cr     1.77393345    1.81421269    0.03979716      13
Cr     1.81512408    0.03109657   -1.74529244      14
Cr     1.75960241    0.04274290    1.78335785      15
Co     0.05613688    1.82758859   -1.76257020      16
Co     0.04001371    1.85006229    1.80563994      17
Co     0.00000000    0.00000000    0.00000000      18
          18
Lattice="  24.8920   0.0000   0.0000   0.0000  24.8920   0.0000   0.0000   0.0000  24.8920 " ConfE="      -5947.2987" DelE="          0.6317"
Cr    -0.04900150   -3.49790388   -0.01110952       1
Cr    -3.26065843   -0.10029358    0.00589679       2
Ni     0.03294763    3.65587970    0.02583072       3
Ni     3.60520133    0.02574505    0.01460811       4
Cr     0.09416672    0.13311064   -3.59593753       5
Co     0.07134905    0.08020193    3.61461015       6
Cr     0.10164950   -1.75156029   -1.98602025       7
Co     0.12698784   -1.82769239    1.97005433       8
Co    -1.67312041    0.07207357   -1.88372007       9
Cr    -1.54814795    0.00443026    1.81664369      10
Co     1.73579458   -1.69049432    0.02274048      11
Co    -1.67993079    1.78222468    0.02776390      12
Cr     1.72319823    1.79327239    0.03859033      13
Cr     1.71246103    0.02853030   -1.65264096      14
Cr     1.63885704    0.02510131    1.69352385      15
Co     0.05609436    1.80920467   -1.73769515      16
Co     0.03736599    1.85147633    1.79483628      17
Co    -0.80387448   -1.07373028   -0.03145533      18
          18
Lattice="  24.8920   0.0000   0.0000   0.0000  24.8920   0.0000   0.0000   0.0000  24.8920 " ConfE="      -5947.8768" DelE="          0.0536"
Cr     0.04791057   -3.53092485   -0.01150988       1
Cr    -3.45458130    0.05447322    0.01714177       2
Ni     0.04458198    3.65550497    0.03016920       3
Ni     3.63125788    0.03887242    0.01273610       4
Cr     0.08631748    0.06437966   -3.55323653       5
Co     0.06732628    0.07215216    3.57847796       6
Cr     0.07965090   -1.68549545   -1.76076575       7
Co     0.05691279   -1.71625314    1.75214897       8
Co    -1.64517227    0.05655390   -1.73815099       9
Cr    -1.53690785    0.00565563    1.67634955      10
Co     1.78897752   -1.66950767    0.02110361      11
Co    -1.69002372    1.82349049    0.03726490      12
Cr     1.75039466    1.80186339    0.04163988      13
Cr     1.76403309    0.04749146   -1.67578878      14
Cr     1.69686088    0.04674401    1.72139829      15
Co     0.07340136    1.80165237   -1.72920862      16
Co     0.04716049    1.84983833    1.79336245      17
Co    -1.65318680   -1.70288299   -0.01807282      18
