          18
Lattice="  24.8920   0.0000   0.0000   0.0000  24.8920   0.0000   0.0000   0.0000  24.8920 " ConfE="      -5938.4113" DelE="          0.0000"
Ni    -3.48118120    0.03381876    0.01560722       1
Ni     3.55931248    0.00685707    0.03881906       2
Co     0.06751879   -0.04272501   -3.54976798       3
Cr     0.03902078   -0.01765341    3.57475831       4
Cr     0.10135805    3.59710410   -0.00084150       5
Cr     0.00235531   -3.56516994    0.01489181       6
Ni    -1.72334147    1.78655555    0.00386125       7
Ni    -1.72866580   -1.74508680    0.00152852       8
Ni    -0.00387828    1.77217402   -1.75957568       9
Ni     0.03036379    1.78955524    1.80277495      10
Ni     0.02651354   -1.76024181    1.78783645      11
Co     0.02047112   -1.80199459   -1.79179490      12
Ni     1.79417652    1.78488922    0.03481075      13
Ni     1.80078474    0.00434393   -1.73261143      14
Co    -1.77224016    0.03007681    1.83963227      15
Cr     1.75969350   -1.81535864   -0.00538289      16
Co     1.80806264    0.00707667    1.83588054      17
Ni     0.00000000    0.00000000    0.00000000      18
          18
Lattice="  24.8920   0.0000   0.0000   0.0000  24.8920   0.0000   0.0000   0.0000  24.8920 " ConfE="      -5937.7921" DelE="          0.6193"
Ni    -3.42432070    0.04103368   -0.00179906       1
Ni     3.55365312    0.00514039    0.03481566       2
Co     0.05638735   -0.03832248   -3.52074398       3
Cr     0.03462376   -0.01569503    3.58499957       4
Cr     0.11967834    3.66393349    0.03024111       5
Cr     0.01091204   -3.61238081    0.04548249       6
Ni    -1.73034343    1.90344785    0.04070505       7
Ni    -1.77207284   -1.88047901    0.06783488       8
Ni     0.05921210    1.94481002   -1.76302016       9
Ni     0.02589082    1.79437117    1.79835095      10
Ni     0.01829559   -1.74940299    1.77227983      11
Co     0.06837472   -1.98193726   -1.85693028      12
Ni     1.77407544    1.78730819    0.04005301      13
Ni     1.73458719    0.00611545   -1.69530061      14
Co    -1.74213307    0.03661652    1.80206456      15
Cr     1.69048907   -1.78297711   -0.01044644      16
Co     1.76757684    0.00736961    1.80870399      17
Ni    -0.65842679   -0.03858941   -0.78225534      18
          18
Lattice="  24.8920   0.0000   0.0000   0.0000  24.8920   0.0000   0.0000   0.0000  24.8920 " ConfE="      -5938.5383" DelE="         -0.1269"
Ni    -3.50762743    0.03231263    0.03858442       1
Ni     3.56702419    0.00254532    0.04016068       2
Co     0.09635892   -0.03550056   -3.58569250       3
Cr     0.04294564   -0.02054534    3.58771183       4
Cr     0.11227485    3.63499876    0.01841389       5
Cr     0.00656436   -3.60854108    0.03594783       6
Ni    -1.68887866    1.78203151    0.03421893       7
Ni    -1.69130501   -1.72741352    0.02718180       8
Ni     0.02936366    1.80149114   -1.72796335       9
Ni     0.03169989    1.77180534    1.79462283      10
Ni     0.03766467   -1.73554471    1.75581959      11
Co     0.05126802   -1.81360067   -1.75985646      12
Ni     1.77167950    1.76299786    0.04768050      13
Ni     1.75074116   -0.00043408   -1.69065541      14
Co    -1.75334818    0.03281480    1.81703362      15
Cr     1.73811632   -1.80662223   -0.00521981      16
Co     1.78963887    0.00340393    1.82151935      17
Ni    -1.68427958    0.02393911   -1.74407833      18
