          18
Lattice="  24.8920   0.0000   0.0000   0.0000  24.8920   0.0000   0.0000   0.0000  24.8920 " ConfE="      -5936.6372" DelE="          0.0000"
Ni     0.06924636    0.03681705   -3.53351525       1
Co    -3.48330689    0.03435155    0.03760904       2
Cr    -0.02862805   -3.42983323    0.08028799       3
Co     0.02404697    3.62027639    0.03398141       4
Co     3.57629030    0.08288341    0.08876469       5
Co     0.00689835    0.05540621    3.55452669       6
Ni    -1.73688682   -0.00623301   -1.73622246       7
Cr    -0.00277293   -1.77809358   -1.72280602       8
Ni     0.03157189    1.82738182   -1.75026507       9
Ni     1.80736490    0.04046899   -1.75655864      10
Co    -1.74308347    0.01600371    1.76549826      11
Co    -0.01030024   -1.73593073    1.74781889      12
Ni     1.78697184    1.80988118    0.02471111      13
Co    -1.75693117    1.86315396    0.02149181      14
Co     1.81862958   -1.69942266    0.07999965      15
Cr    -0.07658715    1.75805288    1.75189307      16
Cr     1.70569716    0.08419127    1.84803701      17
Ni     0.00000000    0.00000000    0.00000000      18
          18
Lattice="  24.8920   0.0000   0.0000   0.0000  24.8920   0.0000   0.0000   0.0000  24.8920 " ConfE="      -5936.1411" DelE="          0.4961"
Ni     0.08092883    0.07015641   -3.59875816       1
Co    -3.43924821    0.02532001    0.04782030       2
Cr    -0.02662892   -3.41541435    0.07130057       3
Co     0.02391063    3.62600667    0.03175405       4
Co     3.57597015    0.07577217    0.08807535       5
Co     0.00949005    0.08127648    3.63442585       6
Ni    -1.75565846    0.06306953   -1.86183780       7
Cr     0.07520491   -1.75751120   -1.89305830       8
Ni     0.03042547    1.80633459   -1.75202463       9
Ni     1.78109929    0.04393727   -1.75629000      10
Co    -1.74977063    0.08631437    1.93411967      11
Co     0.09333533   -1.77222702    2.02796427      12
Ni     1.74641121    1.76646506    0.02347487      13
Co    -1.69698680    1.78928965    0.03797250      14
Co     1.72841714   -1.65452192    0.09238197      15
Cr    -0.07619810    1.68547392    1.71454914      16
Cr     1.64249940    0.04924953    1.80894069      17
Ni    -0.81206300   -0.91775628    0.05188161      18
          18
Lattice="  24.8920   0.0000   0.0000   0.0000  24.8920   0.0000   0.0000   0.0000  24.8920 " ConfE="      -5936.7762" DelE="         -0.1391"
Ni     0.07620945    0.04617347   -3.55064967       1
Co    -3.51975331    0.08096500    0.01764943       2
Cr     0.02415297   -3.50344711    0.08113345       3
Co     0.03019949    3.63865787    0.03220301       4
Co     3.59073515    0.08479787    0.08858041       5
Co     0.01110520    0.06778995    3.59514190       6
Ni    -1.69837918    0.03178449   -1.72759871       7
Cr     0.04547223   -1.73342560   -1.72317415       8
Ni     0.03631948    1.80770510   -1.72401052       9
Ni     1.78130612    0.04480832   -1.73131465      10
Co    -1.68727682    0.07508276    1.75865205      11
Co     0.02631648   -1.67397349    1.75951011      12
Ni     1.76554285    1.78387958    0.03444135      13
Co    -1.71966957    1.83407906    0.03261542      14
Co     1.74804693   -1.65168725    0.07222963      15
Cr    -0.07003335    1.71368625    1.70089879      16
Cr     1.66755572    0.07587345    1.81269284      17
Ni    -1.71353968   -1.70223597    0.00587406      18
