          18
Lattice="  24.8920   0.0000   0.0000   0.0000  24.8920   0.0000   0.0000   0.0000  24.8920 " ConfE="      -5940.1170" DelE="          0.0000"
Co     0.05264043    0.02246880   -3.48676874       1
Co     3.59593291   -0.02496118   -0.01973137       2
Co    -0.03072611    0.00497677    3.53112035       3
Co    -3.55932804   -0.00360308    0.04519057       4
Ni     0.01980725   -3.52866099    0.01390373       5
Cr    -0.01433265    3.56105370    0.00239476       6
Co     0.07277164   -1.69901635   -1.70038959       7
Ni     0.01507477    1.75260770   -1.74713963       8
Cr     1.82047688   -1.71472565   -0.08869243       9
Ni     1.79874543    1.73216017   -0.02959899      10
Cr    -1.78193459   -0.05093877   -1.72964031      11
Ni     1.79015313    0.00475721    1.79719939      12
Cr    -1.77888575    0.01093348    1.84357947      13
Cr    -1.76228850   -1.71020128    0.02185323      14
Co    -1.77739319    1.74782969    0.03909827      15
Co     0.00871753   -1.73736620    1.76282936      16
Cr    -0.01249818    1.77070550    1.80033337      17
Cr     0.00000000    0.00000000    0.00000000      18
          18
Lattice="  24.8920   0.0000   0.0000   0.0000  24.8920   0.0000   0.0000   0.0000  24.8920 " ConfE="      -5939.5758" DelE="          0.5412"
Co     0.06732993    0.01365330   -3.40262119       1
Co     3.55199770   -0.02209421   -0.02166416       2
Co    -0.01025283    0.00536570    3.53949317       3
Co    -3.58236173    0.00094348    0.02788048       4
Ni     0.01594312   -3.57984506    0.01379070       5
Cr    -0.02015511    3.67669547    0.02739639       6
Co     0.00646004   -1.87827085   -1.78052517       7
Ni    -0.00357390    1.83233979   -1.71195554       8
Cr     1.88948632   -1.91711397    0.01454468       9
Ni     1.83280105    1.88573483    0.01681784      10
Cr    -1.74861804   -0.05518268   -1.66642949      11
Ni     1.78829635    0.02399031    1.75576954      12
Cr    -1.71954335    0.01595050    1.72465474      13
Cr    -1.67148452   -1.66033128   -0.01405707      14
Co    -1.71721459    1.71760520    0.04051274      15
Co     0.01912949   -1.66243330    1.65186867      16
Cr     0.00231702    1.70483516    1.69979063      17
Cr     0.88808658   -0.14488185   -0.70746271      18
          18
Lattice="  24.8920   0.0000   0.0000   0.0000  24.8920   0.0000   0.0000   0.0000  24.8920 " ConfE="      -5940.4332" DelE="         -0.3162"
Co     0.01533421   -0.00201755   -3.54129234       1
Co     3.64226900    0.00015096    0.01922839       2
Co    -0.02299141    0.00338327    3.56244524       3
Co    -3.59614029   -0.00126393    0.03883552       4
Ni     0.00985984   -3.56690326    0.01646339       5
Cr    -0.01501230    3.59566408    0.00465563       6
Co     0.03861551   -1.71284992   -1.68905416       7
Ni    -0.00734803    1.73502665   -1.72124821       8
Cr     1.79476619   -1.74500704   -0.03676671       9
Ni     1.76732949    1.75170583    0.00631390      10
Cr    -1.71073413   -0.07330494   -1.64715863      11
Ni     1.74661001    0.01041726    1.74796880      12
Cr    -1.73600860    0.01494927    1.75595272      13
Cr    -1.70526451   -1.67195587    0.02442552      14
Co    -1.72995449    1.70135143    0.05802366      15
Co    -0.01768550   -1.69821846    1.71855047      16
Cr    -0.02598721    1.75804672    1.79685905      17
Cr     1.75575219   -0.03799618   -1.72828119      18
