          18
Lattice="  24.8920   0.0000   0.0000   0.0000  24.8920   0.0000   0.0000   0.0000  24.8920 " ConfE="      -5950.0572" DelE="          0.0000"
Ni     0.00262833   -3.54024033    0.02408046       1
Cr    -0.00736601   -0.00963446    3.55933309       2
Co     3.51837922   -0.01257933    0.03411154       3
Ni    -3.58938306   -0.01158704    0.01077530       4
Cr     0.00664753    3.53882253    0.07423145       5
Cr    -0.00815563    0.02985758   -3.50940649       6
Ni     0.03055800   -1.73234242    1.77104915       7
Ni    -1.80067664   -0.00971335    1.76935346       8
Cr     1.81798003   -1.73861678   -0.01384246       9
Ni    -1.81461834    0.00325182   -1.75456097      10
Co     1.72812339    1.70586476    0.08715467      11
Cr     0.06970463    1.69778313    1.77659369      12
Cr    -1.80817484   -1.78899476    0.00442750      13
Co     1.77375230    0.01239662   -1.76516378      14
Cr    -0.01699290   -1.74347955   -1.73848045      15
Cr    -1.76969485    1.78418256   -0.00042208      16
Cr     0.04112641    1.77583431   -1.75673175      17
Co     0.00000000    0.00000000    0.00000000      18
          18
Lattice="  24.8920   0.0000   0.0000   0.0000  24.8920   0.0000   0.0000   0.0000  24.8920 " ConfE="      -5946.2245" DelE="          3.8327"
Ni     0.02200709   -3.54684228    0.05053488       1
Cr    -0.05104236    0.00071826    3.61016546       2
Co     3.54823727    0.14568748    0.26378005       3
Ni    -3.60296256   -0.01538155    0.01630182       4
Cr    -0.00344977    3.65274716    0.11197693       5
Cr    -0.11035587    0.06080782   -3.58487657       6
Ni    -0.12984307   -1.78622653    1.91647838       7
Ni    -1.79045707   -0.01117394    1.73627937       8
Cr     2.93700968   -1.24560015   -1.28527364       9
Ni    -1.73988957    0.01181573   -1.68200716      10
Co     1.67797321    1.75418235    0.10391015      11
Cr     0.07982255    1.59899951    1.70225296      12
Cr    -1.76166323   -1.78749455    0.00656922      13
Co     1.38322510    0.23757551   -1.75876678      14
Cr     0.01697141   -1.76799766   -1.69342089      15
Cr    -1.75551926    1.80065471    0.02589873      16
Cr    -0.07813676    1.97172960   -1.70277812      17
Co     1.43990488   -1.44397600    0.25895181      18
          18
Lattice="  24.8920   0.0000   0.0000   0.0000  24.8920   0.0000   0.0000   0.0000  24.8920 " ConfE="      -5949.5567" DelE="          0.5005"
Ni    -0.00469284   -3.55010960    0.02188237       1
Cr    -0.01141256   -0.00817151    3.55341751       2
Co     3.52968863   -0.00081943    0.01970700       3
Ni    -3.58973736   -0.01274565    0.01342716       4
Cr     0.00129726    3.54698293    0.07005985       5
Cr    -0.00752124    0.02744388   -3.49920344       6
Ni     0.01239312   -1.73537382    1.77938288       7
Ni    -1.80979208   -0.00500884    1.77344601       8
Cr     1.82222971   -0.06727658   -1.69335796       9
Ni    -1.81234852    0.00486000   -1.74818353      10
Co     1.73582506    1.72368447    0.07095407      11
Cr     0.06025810    1.70388729    1.77645820      12
Cr    -1.79407068   -1.78690587    0.01098624      13
Co    -0.00465673    0.01874318    0.00465469      14
Cr    -0.03245892   -1.76013102   -1.73585478      15
Cr    -1.78198264    1.79655161   -0.00175751      16
Cr     0.04321607    1.77900003   -1.75101739      17
Co     1.76514566   -1.74738864   -0.01890620      18
