          18
Lattice="  24.8920   0.0000   0.0000   0.0000  24.8920   0.0000   0.0000   0.0000  24.8920 " ConfE="      -5947.8820" DelE="          0.0000"
Co     0.02109072   -3.44473984    0.05664388       1
Cr     0.02338476    0.02866222   -3.49556400       2
Co     0.00932496    3.62466988    0.09988714       3
Co     0.02471255    0.01918116    3.60491172       4
Ni    -3.52686870    0.03823470    0.06985471       5
Co     3.53461307    0.05963681    0.09339816       6
Cr    -1.70666135   -1.77050465    0.07259921       7
Cr     1.73353518   -1.73406200    0.04230595       8
Ni    -1.74755527   -0.00224508   -1.72980106       9
Cr     1.76151273   -0.03239593   -1.72903195      10
Cr     0.00809138   -1.69165326    1.91374352      11
Co     0.03646939    1.84961909   -1.71319001      12
Cr     0.10190897    1.77613645    1.82258303      13
Co    -1.77029792    0.07125616    1.82670898      14
Co     1.76790078    0.02637555    1.83799468      15
Cr    -1.72355469    1.83424206    0.06797458      16
Co     1.76715426    1.81853550    0.06400714      17
Ni     0.00000000    0.00000000    0.00000000      18
          18
Lattice="  24.8920   0.0000   0.0000   0.0000  24.8920   0.0000   0.0000   0.0000  24.8920 " ConfE="      -5947.3579" DelE="          0.5241"
Co     0.02717978   -3.40506553    0.03599398       1
Cr     0.00830953   -0.00423289   -3.44108588       2
Co     0.00638165    3.61507253    0.09668736       3
Co     0.03128371    0.00583948    3.60372529       4
Ni    -3.59793660    0.06949531    0.08046668       5
Co     3.58945117    0.07714033    0.09497491       6
Cr    -1.89563692   -1.75958895    0.09845514       7
Cr     1.91053170   -1.73655236    0.08902319       8
Ni    -1.94429624    0.06367645   -1.79064732       9
Cr     1.93997969    0.05788912   -1.77891612      10
Cr     0.00556654   -1.60616348    1.81060229      11
Co     0.03746433    1.78906234   -1.69877498      12
Cr     0.12357053    1.62699853    1.71217919      13
Co    -1.78609976    0.05992896    1.80504112      14
Co     1.78533957    0.00935806    1.81468881      15
Cr    -1.60429100    1.67548573    0.03644372      16
Co     1.76671444    1.78622830    0.05394085      17
Ni    -0.01537660   -0.64893872   -0.69897337      18
          18
Lattice="  24.8920   0.0000   0.0000   0.0000  24.8920   0.0000   0.0000   0.0000  24.8920 " ConfE="      -5947.9302" DelE="         -0.0482"
Co     0.01841203   -3.49666452    0.07012103       1
Cr     0.02439210    0.08102568   -3.55943738       2
Co     0.00595952    3.63531792    0.10041492       3
Co     0.02595181    0.01695898    3.62610556       4
Ni    -3.55426521    0.05605730    0.07402931       5
Co     3.56110696    0.06905757    0.10903083       6
Cr    -1.60412251   -1.58143234    0.11834356       7
Cr     1.68077617   -1.65692793    0.06002030       8
Ni    -1.76545431    0.05406668   -1.72696162       9
Cr     1.78973693    0.07538397   -1.69116228      10
Cr     0.02013675   -1.65553277    1.85936762      11
Co     0.03373142    1.80045326   -1.69046548      12
Cr     0.11262856    1.72340052    1.78445060      13
Co    -1.75304356    0.08868332    1.82206922      14
Co     1.73430356    0.02223721    1.80694024      15
Cr    -1.61193929    1.71178422    0.07271775      16
Co     1.72584437    1.78102277    0.06966574      17
Ni     0.00287090   -1.67314256   -1.73266175      18
