          18
Lattice="  24.8920   0.0000   0.0000   0.0000  24.8920   0.0000   0.0000   0.0000  24.8920 " ConfE="      -5935.5300" DelE="          0.0000"
Co     3.49471780   -0.05605506   -0.01550270       1
Cr     0.00405591    3.33686022    0.04094659       2
Ni    -0.01731981   -3.60819289   -0.04497767       3
Ni    -3.60755583   -0.08095765   -0.01853648       4
Co    -0.05302432   -0.05254900    3.48482462       5
Cr     0.00018732    0.07763472   -3.52709289       6
Ni     1.74810316   -0.04389330    1.74577155       7
Co     0.01517837    1.74195935    1.72327487       8
Co     1.74328473   -0.06354510   -1.74055778       9
Co    -0.04924676    1.68512015   -1.75581262      10
Cr     1.74393996   -1.80114362   -0.05886666      11
Cr    -1.82217960    1.68676966    0.03721278      12
Co    -1.74585190   -1.81212173   -0.03605454      13
Cr     0.03651214   -1.82172020    1.69111369      14
Co    -1.79871192   -0.05281383    1.75012579      15
Cr    -0.03361900   -1.72081218   -1.79250181      16
Co    -1.81525311   -0.06251209   -1.78727927      17
Ni     0.00000000    0.00000000    0.00000000      18
          18
Lattice="  24.8920   0.0000   0.0000   0.0000  24.8920   0.0000   0.0000   0.0000  24.8920 " ConfE="      -5934.9384" DelE="          0.5916"
Co     3.46693082   -0.05369770   -0.00045849       1
Cr    -0.04934343    3.36301635    0.03572748       2
Ni    -0.00982275   -3.60098631   -0.04162237       3
Ni    -3.61097230   -0.07437153   -0.02398030       4
Co    -0.05874456   -0.09862361    3.55777609       5
Cr    -0.02873506    0.05381819   -3.61209417       6
Ni     1.76715725   -0.10470876    1.89308007       7
Co    -0.14245220    1.67628231    1.94594858       8
Co     1.73601122   -0.11403436   -1.86599166       9
Co    -0.12664113    1.67189685   -1.92304081      10
Cr     1.70826554   -1.69684521   -0.03993137      11
Cr    -1.67598579    1.58523434    0.03891013      12
Co    -1.69765530   -1.77355248   -0.04360384      13
Cr     0.01513423   -1.74444536    1.61835522      14
Co    -1.76074671   -0.08520279    1.70410975      15
Cr    -0.02526526   -1.61013223   -1.67925652      16
Co    -1.79504170   -0.05268650   -1.77130344      17
Ni     1.06532994    1.11636493    0.02068146      18
          18
Lattice="  24.8920   0.0000   0.0000   0.0000  24.8920   0.0000   0.0000   0.0000  24.8920 " ConfE="      -5935.3453" DelE="          0.1847"
Co     3.54866834   -0.07656992   -0.00650382       1
Cr    -0.07069877    3.42698150    0.03856049       2
Ni    -0.02086353   -3.64173995   -0.04326616       3
Ni    -3.62234890   -0.08006606   -0.02144447       4
Co    -0.06445857   -0.06670308    3.50429142       5
Cr    -0.02072715    0.06035896   -3.55838314       6
Ni     1.71117538   -0.07427773    1.74127902       7
Co    -0.06927303    1.67204438    1.72851494       8
Co     1.69863344   -0.10203442   -1.71067858       9
Co    -0.09183053    1.62459417   -1.68639144      10
Cr     1.71348224   -1.76312489   -0.04488199      11
Cr    -1.71466278    1.61606853    0.06484773      12
Co    -1.71129467   -1.79249237   -0.03571607      13
Cr     0.00416679   -1.78267101    1.59848719      14
Co    -1.77903466   -0.07530667    1.70599100      15
Cr    -0.03830412   -1.64498916   -1.66335155      16
Co    -1.80737206   -0.06971445   -1.76800280      17
Ni     1.71521053    1.68127586    0.01834721      18
