          18
Lattice="  24.8920   0.0000   0.0000   0.0000  24.8920   0.0000   0.0000   0.0000  24.8920 " ConfE="      -5948.6547" DelE="          0.0000"
Cr     0.04736806   -0.03320376    3.51514765       1
Co    -3.54894965   -0.01277269    0.04301961       2
Co     0.00958613    0.00722120   -3.59695471       3
Co     3.57714945   -0.02028890   -0.07194020       4
Co    -0.00717880   -3.53637138   -0.01070674       5
Cr     0.00149322    3.50667649   -0.01250625       6
Ni    -1.76939145   -1.73658729    0.01937911       7
Ni    -1.78955557    1.76714754   -0.01646868       8
Ni    -0.03670117    1.70697032    1.75562192       9
Cr     0.04490414   -1.68263703    1.77366771      10
Ni    -1.76915360    0.01194665   -1.82174132      11
Ni     1.77719489   -1.78839108   -0.03611716      12
Co     1.85294919    0.00449117    1.70490629      13
Cr     1.78569819   -0.03492825   -1.81075203      14
Cr    -0.00116128   -1.77723100   -1.79632813      15
Cr     0.04307622    1.75187658   -1.77161524      16
Cr     1.81179716    1.75036775   -0.02945101      17
Co     0.00000000    0.00000000    0.00000000      18
          18
Lattice="  24.8920   0.0000   0.0000   0.0000  24.8920   0.0000   0.0000   0.0000  24.8920 " ConfE="      -5947.8037" DelE="          0.8509"
Cr     0.01322509   -0.02127038    3.46411095       1
Co    -3.48367860   -0.02861239    0.07452745       2
Co     0.00495525    0.00336820   -3.57987540       3
Co     3.56479998   -0.01826904   -0.04897557       4
Co     0.00670553   -3.59403698   -0.05747018       5
Cr     0.04679237    3.60268853   -0.02968058       6
Ni    -1.81925114   -1.91350452   -0.09697543       7
Ni    -1.78670114    1.85860988   -0.01694762       8
Ni     0.00576202    1.91121846    1.75413785       9
Cr     0.12391782   -1.92444590    1.77031727      10
Ni    -1.74935735    0.00638436   -1.74830951      11
Ni     1.74130286   -1.77291445   -0.04108139      12
Co     1.73258223    0.01593203    1.66601415      13
Cr     1.72908071   -0.02054297   -1.75217181      14
Cr    -0.00526435   -1.74766503   -1.75709745      15
Cr     0.02857141    1.71113631   -1.67938402      16
Cr     1.76408194    1.72250864    0.00345277      17
Co    -0.85769082   -0.12256148    1.00396333      18
          18
Lattice="  24.8920   0.0000   0.0000   0.0000  24.8920   0.0000   0.0000   0.0000  24.8920 " ConfE="      -5948.6233" DelE="          0.0314"
Cr     0.04804672   -0.03450472    3.56175057       1
Co    -3.58324491   -0.00720539   -0.01430875       2
Co     0.01246984    0.00623465   -3.61855496       3
Co     3.58485119   -0.01991203   -0.06714411       4
Co    -0.00116655   -3.55153361   -0.01658634       5
Cr     0.00385452    3.53297925   -0.01754842       6
Ni    -1.73435474   -1.73605583   -0.03250272       7
Ni    -1.76344186    1.75188397   -0.03490411       8
Ni    -0.01308115    1.68618887    1.71644713       9
Cr     0.03455972   -1.66468312    1.75502552      10
Ni    -1.74595034    0.01023846   -1.80136624      11
Ni     1.73387347   -1.75241982   -0.04568186      12
Co     1.79293177   -0.00093248    1.67255904      13
Cr     1.76528835   -0.02246899   -1.79259825      14
Cr     0.01126370   -1.73204699   -1.79758502      15
Cr     0.05331275    1.70244083   -1.73871202      16
Cr     1.79276694    1.72466784   -0.03376278      17
Co    -1.80154890   -0.04309078    1.76097742      18
