          18
Lattice="  24.8920   0.0000   0.0000   0.0000  24.8920   0.0000   0.0000   0.0000  24.8920 " ConfE="      -5926.8210" DelE="          0.0000"
Cr    -3.26884996    0.05001316   -0.02763079       1
Cr     0.00364588    0.08250373   -3.26450978       2
Ni     3.79689889    0.01140164    0.10355519       3
Co     0.19102078   -0.00484378    3.58683690       4
Ni     0.21642838   -3.59043084    0.09405005       5
Cr     0.17909897    3.65448816    0.14064880       6
Co    -1.61205705   -1.78124303    0.08854842       7
Cr    -1.67932903    1.83973098    0.09637277       8
Cr     0.12128873   -1.78796086   -1.67365426       9
Ni     0.16611697    1.87104821   -1.61017423      10
Cr    -1.58506052    0.03250203    1.89437380      11
Cr     1.97156846    0.05435370   -1.64527539      12
Co     1.93496156    0.01076494    1.76394558      13
Cr     0.20033517   -1.75317923    1.82539438      14
Ni     0.18678058    1.81435620    1.82921996      15
Cr     1.94683282   -1.76003304    0.07286770      16
Cr     2.04998132    1.84592928    0.13808155      17
Cr     0.00000000    0.00000000    0.00000000      18
          18
Lattice="  24.8920   0.0000   0.0000   0.0000  24.8920   0.0000   0.0000   0.0000  24.8920 " ConfE="      -5926.4544" DelE="          0.3666"
Cr    -3.37206320    0.05736127    0.03307470       1
Cr     0.21653634    0.07963302   -3.42398255       2
Ni     3.82351609    0.02248259    0.11640811       3
Co     0.17800742    0.00570568    3.57758788       4
Ni     0.22052637   -3.63918023    0.11111825       5
Cr     0.19400764    3.70120954    0.14705019       6
Co    -1.67039564   -1.92023249    0.14899226       7
Cr    -1.68139523    1.90762475    0.07097047       8
Cr     0.21714404   -1.96676502   -1.64844257       9
Ni     0.25897580    1.93441717   -1.62363328      10
Cr    -1.57146526    0.04476837    1.80551450      11
Cr     1.98423653    0.08373403   -1.60826752      12
Co     1.90467899    0.02423093    1.72550900      13
Cr     0.16735524   -1.65779054    1.68059090      14
Ni     0.16297480    1.80499206    1.77492302      15
Cr     1.89466755   -1.67698232    0.07506335      16
Cr     2.01427525    1.80174377    0.14232369      17
Cr    -0.73268297   -0.07212397   -0.80991507      18
          18
Lattice="  24.8920   0.0000   0.0000   0.0000  24.8920   0.0000   0.0000   0.0000  24.8920 " ConfE="      -5927.1014" DelE="         -0.2804"
Cr    -3.42656666    0.07258017    0.07171144       1
Cr     0.17426357    0.06264283   -3.44998417       2
Ni     3.82938235    0.01281785    0.11802773       3
Co     0.19760456   -0.00038942    3.60340018       4
Ni     0.22994168   -3.61482472    0.10336115       5
Cr     0.19417302    3.64962760    0.13813393       6
Co    -1.57957383   -1.74743668    0.11487317       7
Cr    -1.62911657    1.83778200    0.12997253       8
Cr     0.17835453   -1.72755644   -1.54765541       9
Ni     0.21007636    1.80892486   -1.57856155      10
Cr    -1.51561727    0.04078991    1.76083415      11
Cr     1.93779618    0.04704959   -1.58192505      12
Co     1.93477582    0.00798649    1.75391548      13
Cr     0.20885112   -1.70926109    1.75822912      14
Ni     0.20983081    1.80021462    1.81878475      15
Cr     1.95042381   -1.72704195    0.10702160      16
Cr     2.04868048    1.81257390    0.14640276      17
Cr    -1.57585493    0.04477577   -1.58379747      18
