          18
Lattice="  24.8920   0.0000   0.0000   0.0000  24.8920   0.0000   0.0000   0.0000  24.8920 " ConfE="      -5934.3245" DelE="          0.0000"
Co     0.02253804   -0.07637922   -3.54316996       1
Ni    -3.50533529   -0.03645706   -0.04649304       2
Ni    -0.01951081   -0.02161292    3.55188566       3
Ni     3.52276570   -0.06308216    0.00695515       4
Cr     0.01764236   -3.66763124    0.01490040       5
Co     0.03698553    3.50599245   -0.00390353       6
Ni    -0.04973243   -1.78829230   -1.77088158       7
Ni     0.00826234    1.70840660   -1.79658478       8
Cr    -1.72557225   -1.77561994   -0.00747835       9
Co    -1.72108143    1.67210961   -0.08024186      10
Cr     1.80002379   -0.06241277   -1.79932562      11
Ni    -1.77690849   -0.03083121    1.77176111      12
Cr     1.74675336   -0.06321474    1.82442022      13
Ni     1.74927093   -1.82674335   -0.00356476      14
Cr     1.74463733    1.74061685    0.01054314      15
Co    -0.01026704   -1.84687682    1.76295109      16
Ni    -0.02481563    1.75843274    1.76885340      17
Cr     0.00000000    0.00000000    0.00000000      18
          18
Lattice="  24.8920   0.0000   0.0000   0.0000  24.8920   0.0000   0.0000   0.0000  24.8920 " ConfE="      -5929.7888" DelE="          4.5357"
Co     0.02952411   -0.05044656   -3.59672787       1
Ni    -3.61818404    0.01462558   -0.06289596       2
Ni    -0.04574712   -0.01529796    3.52594698       3
Ni     3.57252109   -0.05114636    0.01920738       4
Cr     0.09847532   -3.66938831    0.05783649       5
Co     0.01900775    3.54422862    0.00011417       6
Ni    -0.12597369   -1.70649802   -1.76347255       7
Ni    -0.01778959    1.68381319   -1.77180475       8
Cr    -1.93206851   -1.65778901   -0.17580165       9
Co    -1.76301804    1.68420484   -0.10090302      10
Cr     1.81752569    0.03285351   -1.90274869      11
Ni    -1.94271562    0.10421938    1.77129472      12
Cr     1.72066437    0.01361402    1.82909950      13
Ni     1.62993467   -2.46636703    1.76892097      14
Cr     1.63036256    1.57030515   -0.00244057      15
Co    -0.31328363   -1.42815897    1.28509119      16
Ni    -0.06853540    1.74234790    1.72469896      17
Cr     1.70440880   -1.52996907   -0.31063037      18
          18
Lattice="  24.8920   0.0000   0.0000   0.0000  24.8920   0.0000   0.0000   0.0000  24.8920 " ConfE="      -5934.1058" DelE="          0.2187"
Co     0.03104246   -0.06843136   -3.56435472       1
Ni    -3.50231705   -0.03500175   -0.04677578       2
Ni    -0.02628461   -0.02113532    3.55550759       3
Ni     3.51173340   -0.08135108    0.00240937       4
Cr     0.01534440   -3.64468947    0.00114390       5
Co     0.02727258    3.52834509   -0.00432040       6
Ni    -0.05002252   -1.79993709   -1.81124528       7
Ni    -0.00132444    1.71066573   -1.79019343       8
Cr    -1.73035283   -1.76318799   -0.03987031       9
Co    -1.74717386    1.71130575   -0.07798099      10
Cr     1.79545952   -0.06428838   -1.78560560      11
Ni    -1.78781924   -0.02931501    1.76456363      12
Cr     1.75014364   -0.06084059    1.81167002      13
Ni    -0.02112193   -1.83103546    1.77404642      14
Cr     1.71799004    1.72470906    0.00417627      15
Co     0.00527934   -0.08486371   -0.03775226      16
Ni    -0.03178511    1.74369410    1.74817200      17
Cr     1.69708011   -1.84447036   -0.04328566      18
