          18
Lattice="  24.8920   0.0000   0.0000   0.0000  24.8920   0.0000   0.0000   0.0000  24.8920 " ConfE="      -5945.2042" DelE="          0.0000"
Ni     0.02743082   -3.52073888    0.01699994       1
Co     0.06305880   -0.01467722   -3.44516290       2
Cr     0.03576473    3.48305235    0.12214958       3
Cr     0.08255873    0.03840679    3.58173673       4
Co     3.59490203   -0.02806293   -0.00384767       5
Co    -3.51488607   -0.02031701    0.06599604       6
Ni     1.73524773   -1.75986300   -0.02697758       7
Cr    -1.72677821   -1.69102397   -0.04716286       8
Cr     1.80157649   -0.03455730   -1.73066019       9
Co    -1.70676849   -0.05844743   -1.72938992      10
Ni     0.01583065   -1.74946666    1.81351216      11
Co     0.07826487    1.80929100   -1.72323222      12
Co     0.03843590    1.79712369    1.79894928      13
Ni     1.79969017    0.01061442    1.78100652      14
Co    -1.74414994    0.01561965    1.81161607      15
Co     1.81494209    1.75503036    0.01159617      16
Co    -1.74990999    1.76003220    0.04735392      17
Co     0.00000000    0.00000000    0.00000000      18
          18
Lattice="  24.8920   0.0000   0.0000   0.0000  24.8920   0.0000   0.0000   0.0000  24.8920 " ConfE="      -5944.6520" DelE="          0.5521"
Ni     0.04797631   -3.53152133    0.01620917       1
Co     0.04454909   -0.01377360   -3.41669431       2
Cr     0.03789485    3.50251168    0.12009309       3
Cr     0.08572503    0.02143038    3.58174692       4
Co     3.64225465   -0.03471747    0.01852398       5
Co    -3.56165289   -0.00444444    0.08088742       6
Ni     1.89068909   -1.83764789    0.03015066       7
Cr    -1.79845985   -1.72364333   -0.01049551       8
Cr     1.98552724   -0.00880240   -1.73958934       9
Co    -1.92702966    0.06630997   -1.78374146      10
Ni     0.02254787   -1.72772936    1.74717213      11
Co     0.07710058    1.76843609   -1.70111740      12
Co     0.03524619    1.76534239    1.75778797      13
Ni     1.78469039   -0.00318167    1.74368920      14
Co    -1.73634851    0.00632391    1.77224725      15
Co     1.79718345    1.71722954   -0.00166590      16
Co    -1.72770026    1.72757803    0.04099001      17
Co     0.03266640   -0.67408558   -0.86025546      18
          18
Lattice="  24.8920   0.0000   0.0000   0.0000  24.8920   0.0000   0.0000   0.0000  24.8920 " ConfE="      -5945.2525" DelE="         -0.0483"
Ni     0.02862683   -3.55830144    0.04284465       1
Co     0.06283768    0.02958518   -3.50701370       2
Cr     0.03802194    3.51121854    0.13646610       3
Cr     0.08156434    0.03846682    3.61201380       4
Co     3.60897177   -0.01964413    0.00651078       5
Co    -3.53491033   -0.01027279    0.06797329       6
Ni     1.74037334   -1.72674538    0.01285145       7
Cr    -1.73560162   -1.66674844   -0.03997318       8
Cr     1.79611558   -0.01307239   -1.70993756       9
Co    -1.70223523   -0.01374758   -1.68335385      10
Ni    -0.00540631   -1.70836589    1.76120303      11
Co     0.08758959    1.75639115   -1.68890630      12
Co     0.03172476    1.79295561    1.78432784      13
Ni     1.76321514    0.02454692    1.76695170      14
Co    -1.73093776    0.02457175    1.78560529      15
Co     1.78689789    1.73401049    0.01257788      16
Co    -1.71262690    1.73897523    0.05830433      17
Co     0.00145523   -1.75429820   -1.72140180      18
