          18
Lattice="  24.8920   0.0000   0.0000   0.0000  24.8920   0.0000   0.0000   0.0000  24.8920 " ConfE="      -5942.8704" DelE="          0.0000"
Co    -0.02859498   -3.51117479    0.02208098       1
Cr     3.44862938   -0.03460695   -0.02021983       2
Cr    -0.03570583    3.62079119    0.04447944       3
Ni    -3.61616767    0.01154058    0.01893142       4
Ni    -0.02433833    0.01739560   -3.54496899       5
Ni    -0.03675161   -0.01106522    3.55973639       6
Cr     0.00665976   -1.78057022   -1.68599416       7
Co     0.05018882   -1.77982040    1.72607233       8
Co     1.74003843    0.00832195   -1.73864652       9
Cr     1.69985605   -0.03263198    1.69146653      10
Ni    -1.84696578   -1.76812312    0.04479556      11
Cr     1.72790145    1.81819843    0.00957589      12
Co    -1.80765784    1.79792626   -0.01352501      13
Cr    -1.76279598    0.01741467   -1.71212569      14
Ni    -1.82767485    0.00599983    1.79102412      15
Co    -0.02175283    1.82000570   -1.75656049      16
Ni    -0.04806907    1.76853318    1.80126864      17
Co     0.00000000    0.00000000    0.00000000      18
          18
Lattice="  24.8920   0.0000   0.0000   0.0000  24.8920   0.0000   0.0000   0.0000  24.8920 " ConfE="      -5942.4023" DelE="          0.4681"
Co    -0.00025819   -3.46687812    0.03782841       1
Cr     3.37603473   -0.04458845   -0.01439481       2
Cr    -0.01195540    3.62166855    0.05387046       3
Ni    -3.61009503    0.00277252    0.01620264       4
Ni    -0.03526256    0.02824920   -3.60609481       5
Ni    -0.05128670   -0.00794149    3.61100408       6
Cr    -0.00993230   -1.81556251   -1.84372205       7
Co    -0.01206581   -1.80581834    1.86958759       8
Co     1.80577108    0.08905314   -1.96833774       9
Cr     1.73787491    0.00813013    1.86412198      10
Ni    -1.78215910   -1.75126044    0.04853176      11
Cr     1.69831328    1.75220397    0.01071658      12
Co    -1.77027085    1.75683982   -0.00797917      13
Cr    -1.59986871    0.00470824   -1.60917451      14
Ni    -1.80805878   -0.00825984    1.79741237      15
Co     0.00278373    1.75274179   -1.71389629      16
Ni    -0.04249319    1.72775004    1.79164971      17
Co     0.71088474   -0.65235911   -0.05797639      18
          18
Lattice="  24.8920   0.0000   0.0000   0.0000  24.8920   0.0000   0.0000   0.0000  24.8920 " ConfE="      -5943.1498" DelE="         -0.2794"
Co    -0.04959527   -3.54531723    0.02788172       1
Cr     3.51483751    0.00392312   -0.00124692       2
Cr    -0.03161622    3.65326276    0.04950012       3
Ni    -3.62959489    0.01085339    0.01790761       4
Ni    -0.03276992    0.02779865   -3.56362161       5
Ni    -0.04719677   -0.00002406    3.57639703       6
Cr    -0.03395213   -1.72911168   -1.68178369       7
Co    -0.00371863   -1.74675522    1.74655464       8
Co     1.68942346    0.04972022   -1.71795168       9
Cr     1.65310002    0.00475309    1.67773045      10
Ni    -1.80501088   -1.73828739    0.03913159      11
Cr     1.68955131    1.75120324   -0.00405638      12
Co    -1.79921331    1.78682378   -0.02057829      13
Cr    -1.71984762    0.04799604   -1.66465530      14
Ni    -1.82010529    0.01383067    1.77305611      15
Co    -0.03680136    1.79584395   -1.71871236      16
Ni    -0.05645494    1.74865844    1.76282324      17
Co     1.72007294   -1.72344410    0.01461225      18
