          18
Lattice="  24.8920   0.0000   0.0000   0.0000  24.8920   0.0000   0.0000   0.0000  24.8920 " ConfE="      -5925.0502" DelE="          0.0000"
Ni     0.02177065   -3.58530833   -0.14188789       1
Cr     0.00581792   -0.08238078   -3.68828108       2
Ni     0.03953785    3.56653541   -0.09964620       3
Cr     0.07680101   -0.00921098    3.38306409       4
Co    -3.48738747   -0.03157920   -0.10248293       5
Cr     3.53882878   -0.02809812   -0.12190925       6
Ni    -1.67894818   -1.78980322   -0.18513928       7
Ni     1.75132671   -1.81243273   -0.13261753       8
Co    -1.68720484   -0.03932453   -1.90194082       9
Ni     1.69442328   -0.09751082   -1.87844961      10
Co    -0.00123635   -1.81654899    1.70093106      11
Ni     0.06887687    1.76557891   -1.87010681      12
Co     0.02055071    1.80698811    1.66604256      13
Cr    -1.71967729   -0.05295034    1.67616977      14
Co     1.78875692   -0.01964735    1.66349542      15
Co    -1.76155911    1.75712768   -0.07642864      16
Co     1.83209464    1.72559611   -0.12793909      17
Cr     0.00000000    0.00000000    0.00000000      18
          18
Lattice="  24.8920   0.0000   0.0000   0.0000  24.8920   0.0000   0.0000   0.0000  24.8920 " ConfE="      -5920.5996" DelE="          4.4506"
Ni     0.04012893   -3.66541662   -0.14743254       1
Cr    -0.00239307   -0.10373742   -3.73237606       2
Ni     0.09302088    3.59863677   -0.11098227       3
Cr     0.20388428   -0.04661106    3.51622764       4
Co    -3.59985775   -0.42470592   -0.34856757       5
Cr     3.45313882   -0.01588733   -0.11755484       6
Ni    -1.51783738   -1.80310296   -0.31987770       7
Ni     1.68489486   -1.79824520   -0.12608415       8
Co    -1.67580608   -0.10749206   -2.04610730       9
Ni     1.62172968   -0.13077568   -1.88762935      10
Co     0.14177154   -2.06166425    1.78344695      11
Ni     0.39424387    1.90862266   -2.21452473      12
Co     0.00523496    1.87217758    1.75398907      13
Cr    -2.42661153    0.90434130    0.89558648      14
Co     1.62616851   -0.03208964    1.63981890      15
Co    -0.81060629    1.33203431   -0.40545419      16
Co     1.78902172    1.70036371   -0.14102481      17
Cr    -1.15142577   -0.32723844    1.50644461      18
          18
Lattice="  24.8920   0.0000   0.0000   0.0000  24.8920   0.0000   0.0000   0.0000  24.8920 " ConfE="      -5924.5231" DelE="          0.5271"
Ni     0.02219774   -3.58077987   -0.15130456       1
Cr     0.00675259   -0.09834666   -3.66388581       2
Ni     0.05166356    3.55978393   -0.10646443       3
Cr     0.08071975   -0.01495886    3.39792896       4
Co    -3.50047139   -0.03166913   -0.11156576       5
Cr     3.50838064   -0.01739644   -0.11567993       6
Ni    -1.68781052   -1.79469430   -0.20462858       7
Ni     1.76166614   -1.81517277   -0.13457694       8
Co    -1.70696491   -0.04292079   -1.92368448       9
Ni     1.72459142   -0.09738825   -1.89705233      10
Co    -0.00419922   -1.80865546    1.69744430      11
Ni     0.09863299    1.76872403   -1.89890810      12
Co     0.02255573    1.79827567    1.66169663      13
Cr    -1.68074203    1.67771663   -0.13369493      14
Co     1.79197504   -0.01722166    1.67799096      15
Co     0.01540056   -0.00650625   -0.08548478      16
Co     1.83732149    1.72907775   -0.13319130      17
Cr    -1.66781690   -0.08076756    1.63762090      18
