          18
Lattice="  24.8920   0.0000   0.0000   0.0000  24.8920   0.0000   0.0000   0.0000  24.8920 " ConfE="      -5938.0034" DelE="          0.0000"
Ni    -0.03863758    3.46577191   -0.01517417       1
Ni    -0.01027986   -0.03753424   -3.52028983       2
Ni    -3.55407970   -0.03755045    0.00211417       3
Cr     3.52716500   -0.08354354    0.07970342       4
Cr     0.06347467   -3.55632715    0.08923717       5
Co    -0.03018314   -0.05423922    3.56487209       6
Ni     1.76753323    1.73248980    0.01065593       7
Co    -1.74194780   -0.01762230   -1.77250513       8
Co    -1.80889080    1.77779521   -0.01804501       9
Ni    -1.75822683   -1.79739494    0.01718828      10
Cr     1.73405752    0.01349236   -1.77878689      11
Ni     0.00025135    1.73197945    1.81792609      12
Co    -1.79254876   -0.05281288    1.80772592      13
Cr     0.02591894   -1.80647622   -1.73603332      14
Co     1.79817948   -0.03163061    1.79826959      15
Cr    -0.03973936   -1.78443987    1.83638926      16
Co     1.77297228   -1.79148591    0.03206590      17
Ni     0.00000000    0.00000000    0.00000000      18
          18
Lattice="  24.8920   0.0000   0.0000   0.0000  24.8920   0.0000   0.0000   0.0000  24.8920 " ConfE="      -5937.3925" DelE="          0.6110"
Ni    -0.02654161    3.42426742   -0.02765499       1
Ni    -0.01938342   -0.03320596   -3.43212655       2
Ni    -3.61063758   -0.04271335    0.01953850       3
Cr     3.57268520   -0.08562784    0.08993659       4
Cr     0.05416311   -3.57958985    0.08504333       5
Co    -0.02917938   -0.04977103    3.57046278       6
Ni     1.88797058    1.76156319    0.04840632       7
Co    -1.99123299   -0.12427066   -1.85399714       8
Co    -1.93049775    1.79728042    0.00213457       9
Ni    -1.77566635   -1.77653749    0.00979599      10
Cr     1.93160317   -0.03128305   -1.81877237      11
Ni    -0.00035826    1.67345110    1.73972269      12
Co    -1.77779560   -0.05875217    1.78296505      13
Cr     0.02708422   -1.76505283   -1.62890546      14
Co     1.78680288   -0.03889344    1.77344950      15
Cr    -0.03873960   -1.71721298    1.72303949      16
Co     1.74840468   -1.74800073    0.00805398      17
Ni    -0.01555234    0.60828475   -0.72646997      18
          18
Lattice="  24.8920   0.0000   0.0000   0.0000  24.8920   0.0000   0.0000   0.0000  24.8920 " ConfE="      -5937.4395" DelE="          0.5639"
Ni    -0.02244768    3.40626052   -0.03715930       1
Ni    -0.02114292   -0.02825134   -3.44874862       2
Ni    -3.63402965   -0.04143391    0.02248756       3
Cr     3.60441745   -0.08486161    0.09817608       4
Cr     0.05149637   -3.55736416    0.08223772       5
Co    -0.02703181   -0.04846066    3.56369632       6
Ni     1.91203855    1.75263175    0.06401867       7
Co    -1.99473288   -0.11397085   -1.83984606       8
Co    -1.95161334    1.78796781    0.02634850       9
Ni    -1.79108000   -1.76355341    0.01504252      10
Cr     1.93532153   -0.04787213   -1.79903798      11
Ni     0.00175192    1.66133521    1.72305910      12
Co    -1.78363444   -0.05604398    1.78084761      13
Cr     0.02994100   -1.68225024   -1.56631458      14
Co     1.79446804   -0.03836417    1.76925797      15
Cr    -0.03599762   -1.69840414    1.70205866      16
Co     1.76237826   -1.74114273    0.01624410      17
Ni    -0.00612753    0.87304142   -0.96027493      18
