          18
Lattice="  24.8920   0.0000   0.0000   0.0000  24.8920   0.0000   0.0000   0.0000  24.8920 " ConfE="      -5938.0858" DelE="          0.0000"
Ni     0.02706370    0.00283613   -3.45523456       1
Cr     0.05414270    3.53699223   -0.02928134       2
Ni     0.05849441    0.00971943    3.65034507       3
Ni     0.02553752   -3.50838351    0.09681905       4
Cr    -3.43096144    0.03898279    0.11000546       5
Ni     3.58374274    0.01073486    0.09654495       6
Ni    -1.71323334    0.03505427   -1.71847470       7
Co     1.78320490   -0.02304355   -1.69510120       8
Co    -1.63084951    1.82403615   -0.01285371       9
Ni     1.74919617    1.75693462    0.03529896      10
Co     0.00663444   -1.81071888   -1.73850800      11
Ni     0.04885580    1.76614058    1.83914331      12
Ni     0.04550124   -1.74457037    1.85572674      13
Co    -1.72462171   -1.73368101    0.08492483      14
Ni     1.80677551   -1.73574513    0.07369033      15
Co    -1.74906430    0.03356601    1.82660303      16
Ni     1.81057163    0.00523732    1.85004319      17
Cr     0.00000000    0.00000000    0.00000000      18
          18
Lattice="  24.8920   0.0000   0.0000   0.0000  24.8920   0.0000   0.0000   0.0000  24.8920 " ConfE="      -5937.2203" DelE="          0.8655"
Ni     0.02778216    0.00630955   -3.41441368       1
Cr     0.07504956    3.53694265    0.00280988       2
Ni     0.06153416    0.02310525    3.63885479       3
Ni     0.01996297   -3.49702816    0.08304383       4
Cr    -3.56485959    0.01794521    0.12813717       5
Ni     3.62353700    0.01144704    0.10236141       6
Ni    -1.85399116   -0.01404679   -1.71902678       7
Co     1.90111887   -0.02541000   -1.74164801       8
Co    -1.76006088    1.79794620    0.04008721       9
Ni     1.91190426    1.81444766    0.09456782      10
Co    -0.00187265   -1.74243478   -1.71299250      11
Ni     0.05366081    1.73381132    1.75422168      12
Ni     0.03753489   -1.68788791    1.79551916      13
Co    -1.72917835   -1.68893430    0.07475846      14
Ni     1.77177429   -1.66502720    0.04721376      15
Co    -1.76676704    0.03681363    1.79393517      16
Ni     1.82316575    0.02061707    1.82853188      17
Cr     0.08821753    0.75942110   -0.76191306      18
          18
Lattice="  24.8920   0.0000   0.0000   0.0000  24.8920   0.0000   0.0000   0.0000  24.8920 " ConfE="      -5938.1443" DelE="         -0.0585"
Ni     0.02432081   -0.01481439   -3.48973764       1
Cr     0.05344274    3.58530709    0.06143965       2
Ni     0.05903738    0.00404650    3.65793250       3
Ni     0.02714129   -3.52123866    0.08892304       4
Cr    -3.48996311    0.01452648    0.11579264       5
Ni     3.60202649    0.00300886    0.09924322       6
Ni    -1.69299971   -0.01165597   -1.65645263       7
Co     1.78239672   -0.01832151   -1.69594956       8
Co    -1.67043238    1.78643665    0.03384478       9
Ni     1.76293586    1.74575386    0.06286234      10
Co     0.01738664   -1.79538931   -1.74153475      11
Ni     0.04448090    1.72746830    1.80081958      12
Ni     0.03979955   -1.72270664    1.82137597      13
Co    -1.73201816   -1.74877594    0.09839843      14
Ni     1.79094093   -1.72066847    0.06432953      15
Co    -1.77246632    0.01897140    1.81967651      16
Ni     1.82038307   -0.01025934    1.85151478      17
Cr     0.02547480    1.77243344   -1.68186234      18
