          18
Lattice="  24.8920   0.0000   0.0000   0.0000  24.8920   0.0000   0.0000   0.0000  24.8920 " ConfE="      -5949.6579" DelE="          0.0000"
Ni     0.03976898    0.01187386   -3.47614948       1
Ni     0.03073542   -3.48677765    0.00242788       2
Cr    -0.01114556    0.04192617    3.65347799       3
Ni     0.05250269    3.60357804    0.05972748       4
Ni    -3.50292328    0.01667291    0.04756308       5
Ni     3.57061970   -0.01853425    0.09123262       6
Ni    -1.69449911   -0.01505042   -1.73921042       7
Cr     1.75048350    0.10309189   -1.69737148       8
Co    -1.71424644   -1.71560815    0.06501708       9
Ni     1.76164175   -1.75424469   -0.03035107      10
Co     0.04352424    1.83304474   -1.70748801      11
Ni     0.02204179   -1.77879315    1.84733527      12
Cr     0.02922405    1.79578731    1.82788091      13
Co    -1.72439904    1.80775963    0.06628348      14
Cr     1.79149375    1.78148646    0.09195723      15
Cr    -1.74359693    0.03504648    1.80326714      16
Ni     1.78370450   -0.03945513    1.83796422      17
Cr     0.00000000    0.00000000    0.00000000      18
          18
Lattice="  24.8920   0.0000   0.0000   0.0000  24.8920   0.0000   0.0000   0.0000  24.8920 " ConfE="      -5948.8726" DelE="          0.7854"
Ni     0.03476070    0.01854878   -3.43001093       1
Ni     0.04123246   -3.46272868   -0.01167848       2
Cr    -0.01215338    0.02627477    3.62567668       3
Ni     0.05475635    3.60726201    0.05541364       4
Ni    -3.54997795    0.02148969    0.06516046       5
Ni     3.60325996   -0.01145132    0.09498158       6
Ni    -1.83647429    0.06481176   -1.75464055       7
Cr     1.88758102    0.12954240   -1.73738157       8
Co    -1.79462847   -1.73960078    0.05863680       9
Ni     1.91188590   -1.82047742    0.06849212      10
Co     0.06180085    1.74506833   -1.63749577      11
Ni     0.02039041   -1.75989843    1.77578344      12
Cr     0.03543723    1.74778661    1.77510955      13
Co    -1.69141178    1.75387176    0.07764327      14
Cr     1.71305592    1.69455213    0.06442698      15
Cr    -1.65860598    0.01697782    1.69743813      16
Ni     1.76850997   -0.04633802    1.80143053      17
Cr     0.06651688   -0.84711216   -0.85572432      18
          18
Lattice="  24.8920   0.0000   0.0000   0.0000  24.8920   0.0000   0.0000   0.0000  24.8920 " ConfE="      -5949.5219" DelE="          0.1360"
Ni     0.04296413    0.04524413   -3.51537842       1
Ni     0.02456262   -3.53033571    0.03823698       2
Cr    -0.01521227    0.04341735    3.64894145       3
Ni     0.05783695    3.61750730    0.05707656       4
Ni    -3.52340329    0.01732549    0.06279368       5
Ni     3.58748967   -0.01145557    0.09369053       6
Ni    -1.69116665    0.02615761   -1.68691560       7
Cr     1.73361237    0.10891368   -1.66428355       8
Co    -1.71887936   -1.71196509    0.07374230       9
Ni     1.76973831   -1.74110195    0.01060008      10
Co     0.08405139    1.75036420   -1.63690457      11
Ni     0.00765638   -1.75659148    1.81373751      12
Cr     0.01803637    1.75436977    1.77849724      13
Co    -1.68365477    1.77112151    0.10266179      14
Cr     1.77233376    1.76679185    0.09574065      15
Cr    -1.70976956    0.03972232    1.77988175      16
Ni     1.75566313   -0.02313594    1.81129027      17
Cr     0.01970154   -1.69066083   -1.67996288      18
