          18
Lattice="  24.8920   0.0000   0.0000   0.0000  24.8920   0.0000   0.0000   0.0000  24.8920 " ConfE="      -5950.3452" DelE="          0.0000"
Ni     0.02425569    0.00265061    3.49095667       1
Ni    -0.04061514    3.49066799   -0.01053107       2
Co    -0.01136731   -0.06543668   -3.61224373       3
Cr     0.00183287   -3.50830481   -0.04210044       4
Co    -3.59053212   -0.00386742   -0.03788714       5
Co     3.55673024   -0.02212830   -0.03345811       6
Ni    -1.76675329    0.01001066    1.72963692       7
Co     1.83388134   -0.04502176    1.74901708       8
Ni    -1.78323473    1.76262091   -0.01450158       9
Ni     1.74845784    1.71868156   -0.01112020      10
Ni     0.01810614   -1.79232976    1.73522706      11
Ni    -0.01677512    1.70848890   -1.82292606      12
Co    -0.01034477   -1.77880414   -1.81681203      13
Ni    -1.79942516   -1.76033931   -0.03708395      14
Co     1.78514319   -1.78393102   -0.06702693      15
Ni    -1.80826180   -0.01302380   -1.82785612      16
Co     1.82020081   -0.03725114   -1.86396141      17
Ni     0.00000000    0.00000000    0.00000000      18
          18
Lattice="  24.8920   0.0000   0.0000   0.0000  24.8920   0.0000   0.0000   0.0000  24.8920 " ConfE="      -5949.5982" DelE="          0.7469"
Ni     0.01294333    0.01952738    3.46503136       1
Ni    -0.03459057    3.44693733   -0.00183647       2
Co    -0.01282247   -0.05583981   -3.61543392       3
Cr    -0.00423410   -3.50084723   -0.03274712       4
Co    -3.64776642   -0.00848409   -0.05036429       5
Co     3.61627619   -0.04744216   -0.04679501       6
Ni    -1.92509580   -0.04720674    1.75620008       7
Co     1.96589289   -0.10621210    1.76668409       8
Ni    -1.91406618    1.77533512   -0.05851189       9
Ni     1.90321049    1.71798447   -0.08864452      10
Ni     0.01323702   -1.70076508    1.68186115      11
Ni    -0.01554974    1.63967071   -1.72402754      12
Co    -0.01485697   -1.74133514   -1.77841576      13
Ni    -1.79260956   -1.72054258   -0.04051867      14
Co     1.76372714   -1.74269776   -0.07721080      15
Ni    -1.82234148   -0.01243454   -1.81470804      16
Co     1.82772047   -0.04695104   -1.85674729      17
Ni     0.01426836    0.99236708    1.02483231      18
          18
Lattice="  24.8920   0.0000   0.0000   0.0000  24.8920   0.0000   0.0000   0.0000  24.8920 " ConfE="      -5950.2378" DelE="          0.1073"
Ni     0.02047522   -0.03144404    3.53007539       1
Ni    -0.03829755    3.51934660   -0.04280785       2
Co    -0.01578737   -0.06459318   -3.63237770       3
Cr    -0.00045735   -3.51164844   -0.04153120       4
Co    -3.61361720   -0.00600234   -0.04080615       5
Co     3.57992459   -0.03324307   -0.03844390       6
Ni    -1.76077435   -0.01769948    1.70454569       7
Co     1.82818537   -0.06298741    1.73432238       8
Ni    -1.78141691    1.73370792   -0.04021182       9
Ni     1.73505713    1.66321664   -0.04879503      10
Ni     0.02089717   -1.76020156    1.70489285      11
Ni    -0.01669719    1.66087039   -1.78486427      12
Co    -0.00901496   -1.74791266   -1.78844148      13
Ni    -1.77502576   -1.73379840   -0.04329340      14
Co     1.75466749   -1.75341237   -0.07386891      15
Ni    -1.80712366   -0.01828091   -1.82588543      16
Co     1.81797768   -0.05255790   -1.87145238      17
Ni     0.00910454    1.70499750    1.70577040      18
