          18
Lattice="  24.8920   0.0000   0.0000   0.0000  24.8920   0.0000   0.0000   0.0000  24.8920 " ConfE="      -5922.7295" DelE="          0.0000"
Cr    -0.05646115    0.12413606    3.72422485       1
Ni     3.42010411    0.14857485    0.09247777       2
Cr    -0.03223529    3.73626378    0.11801999       3
Co    -3.60839527    0.15048338    0.12465797       4
Co    -0.03559431    0.09538899   -3.46468330       5
Cr    -0.03305187   -3.27025498    0.11090847       6
Ni     1.63713872    0.14644724    1.88273841       7
Ni    -1.77117864    0.14750696    1.86277702       8
Cr     1.54261999    1.89521426    0.11646582       9
Cr    -1.66872367    1.85347850    0.13637206      10
Ni    -0.07221971    1.89153058   -1.72664620      11
Ni    -1.85436497   -1.62630150    0.09904177      12
Ni    -1.85985031    0.12364493   -1.70208216      13
Co    -0.08189538   -1.66181303    1.89948246      14
Co     1.68977449   -1.65447160    0.10536422      15
Co     1.68320065    0.12711972   -1.68931845      16
Co    -0.07136203   -1.66657537   -1.72269255      17
Cr     0.00000000    0.00000000    0.00000000      18
          18
Lattice="  24.8920   0.0000   0.0000   0.0000  24.8920   0.0000   0.0000   0.0000  24.8920 " ConfE="      -5922.0262" DelE="          0.7033"
Cr    -0.05704508    0.14603791    3.62376245       1
Ni     3.52458320    0.11429495    0.08807302       2
Cr    -0.04636766    3.73639266    0.12227158       3
Co    -3.69836776    0.11757484    0.09140888       4
Co    -0.03532757    0.11295806   -3.44155660       5
Cr    -0.02321761   -3.27771056    0.12180105       6
Ni     1.81107808    0.10065521    1.88885891       7
Ni    -1.92315858    0.12074540    1.86816341       8
Cr     1.91912157    1.96583883   -0.02206961       9
Cr    -1.99675612    1.87118947    0.07874506      10
Ni    -0.05969358    1.87411642   -1.60747942      11
Ni    -1.81883143   -1.58142660    0.10122379      12
Ni    -1.83801017    0.14050016   -1.64938255      13
Co    -0.07254428   -1.52731147    1.86426109      14
Co     1.66365329   -1.60281634    0.10093289      15
Co     1.68091752    0.15220004   -1.60982809      16
Co    -0.05020863   -1.62251938   -1.65543552      17
Cr    -0.00266266    1.11783745    0.89822646      18
          18
Lattice="  24.8920   0.0000   0.0000   0.0000  24.8920   0.0000   0.0000   0.0000  24.8920 " ConfE="      -5922.6027" DelE="          0.1268"
Cr    -0.06428870    0.12019425    3.70276190       1
Ni     3.46927858    0.12584823    0.07864128       2
Cr    -0.04593788    3.76452242    0.07268705       3
Co    -3.65742483    0.12855758    0.10557563       4
Co    -0.03806362    0.10094481   -3.47845181       5
Cr    -0.01957236   -3.30145337    0.11985701       6
Ni     1.65697059    0.12338092    1.83608025       7
Ni    -1.80667150    0.14430467    1.83559069       8
Cr     1.65243966    1.86324529    0.02718622       9
Cr    -1.79752631    1.85471978    0.08905788      10
Ni    -0.07521769    1.86050570   -1.65801155      11
Ni    -1.81008787   -1.60213584    0.09007007      12
Ni    -1.84439592    0.12327928   -1.67883876      13
Co    -0.09259539   -1.61418092    1.88176240      14
Co     1.64333037   -1.62909363    0.08695613      15
Co     1.68120561    0.11894903   -1.67469652      16
Co    -0.05703315   -1.65379581   -1.69593333      17
Cr    -0.04517548    1.91800549    1.75110478      18
