          18
Lattice="  24.8920   0.0000   0.0000   0.0000  24.8920   0.0000   0.0000   0.0000  24.8920 " ConfE="      -5949.8902" DelE="          0.0000"
Ni    -0.03637153   -0.00215217   -3.55824745       1
Ni    -3.59049716   -0.01062060    0.03135491       2
Cr     3.54353663    0.00193829   -0.01705467       3
Co     0.02995940    0.01372950    3.54967621       4
Cr     0.00360793    3.55605468   -0.03544935       5
Cr    -0.01011862   -3.55654535   -0.03789384       6
Ni     0.01977368    1.74204102    1.73785241       7
Ni     0.01353070   -1.74622442    1.78518273       8
Ni     1.76688409   -1.71935248    0.02785469       9
Ni    -0.04660531    1.78039192   -1.78942967      10
Ni    -1.81305280    1.76522929   -0.01776260      11
Co     1.74875792    1.74172137   -0.03066020      12
Ni    -1.80155125   -1.75765864    0.00960244      13
Co    -1.77755560   -0.00522700   -1.77648168      14
Cr     1.74581041    0.03241899   -1.80217131      15
Cr    -1.79376277    0.00817822    1.81560756      16
Co    -0.01322395   -1.75628320   -1.75889984      17
Cr     0.00000000    0.00000000    0.00000000      18
          18
Lattice="  24.8920   0.0000   0.0000   0.0000  24.8920   0.0000   0.0000   0.0000  24.8920 " ConfE="      -5948.9749" DelE="          0.9152"
Ni    -0.02931116   -0.00475945   -3.55349425       1
Ni    -3.59362876   -0.01191018    0.04902653       2
Cr     3.52234857   -0.00804507   -0.03204426       3
Co     0.03368856    0.00712169    3.45668853       4
Cr    -0.02694768    3.62609264   -0.05103280       5
Cr    -0.03192703   -3.64956133   -0.04661442       6
Ni    -0.05143261    1.90246266    1.75547254       7
Ni    -0.01621952   -1.89593532    1.80924797       8
Ni     1.79852333   -1.90435150   -0.03493791       9
Ni    -0.01891501    1.73075520   -1.71268093      10
Ni    -1.77494041    1.73650836    0.01017954      11
Co     1.77025106    1.87992895   -0.03603621      12
Ni    -1.73814884   -1.72488200    0.04566753      13
Co    -1.72958509   -0.01190653   -1.72365857      14
Cr     1.70918549    0.00232679   -1.74096885      15
Cr    -1.74944504    0.00319720    1.80059839      16
Co     0.01570775   -1.71487558   -1.69074327      17
Cr     0.78000639    0.00402262    0.73489047      18
          18
Lattice="  24.8920   0.0000   0.0000   0.0000  24.8920   0.0000   0.0000   0.0000  24.8920 " ConfE="      -5949.8400" DelE="          0.0502"
Ni    -0.03678166   -0.00628554   -3.56521715       1
Ni    -3.61322877   -0.01740615    0.03136236       2
Cr     3.60416977    0.00599411   -0.07661910       3
Co     0.01592658    0.01114436    3.58220218       4
Cr    -0.01583596    3.57426831   -0.04251772       5
Cr    -0.02742743   -3.58560852   -0.04321644       6
Ni    -0.01654256    1.73083740    1.69305418       7
Ni    -0.01208756   -1.74785771    1.75286119       8
Ni     1.73271041   -1.74327021   -0.02356982       9
Ni    -0.05632199    1.74250315   -1.76361912      10
Ni    -1.80892343    1.73219014   -0.02237911      11
Co     1.73987054    1.74992458   -0.05250523      12
Ni    -1.79222678   -1.73953315    0.00884042      13
Co    -1.76921767   -0.01580112   -1.77041433      14
Cr     1.69166223    0.03971175   -1.71948414      15
Cr    -1.76442561    0.00058403    1.78478717      16
Co    -0.02211248   -1.74025415   -1.74342782      17
Cr     1.75568298    0.01908143    1.64237784      18
