          18
Lattice="  24.8920   0.0000   0.0000   0.0000  24.8920   0.0000   0.0000   0.0000  24.8920 " ConfE="      -5949.7317" DelE="          0.0000"
Co    -3.39539285    0.06088064   -0.02332657       1
Ni     0.05119948    0.04730168   -3.53649966       2
Co     3.73342857    0.01148534    0.02711232       3
Co     0.13171248    0.03834572    3.58798063       4
Co     0.11933903   -3.48021775    0.02625017       5
Co     0.04994815    3.61915605   -0.01497037       6
Cr    -1.67625497   -1.68078659    0.03558851       7
Co    -1.70050382    1.81681687   -0.01410255       8
Ni     0.05007215   -1.67470888   -1.76437955       9
Ni     0.06772102    1.78513931   -1.74731401      10
Ni    -1.66740622    0.05086171    1.80844220      11
Ni     1.89178391    0.03388256   -1.74172324      12
Ni     1.90009744    0.02973431    1.78696279      13
Co     0.12715828   -1.74187806    1.80680545      14
Ni     0.11344442    1.80922401    1.77676796      15
Ni     1.89632386   -1.71563838    0.01213268      16
Ni     1.86491182    1.78739000    0.01459221      17
Co     0.00000000    0.00000000    0.00000000      18
          18
Lattice="  24.8920   0.0000   0.0000   0.0000  24.8920   0.0000   0.0000   0.0000  24.8920 " ConfE="      -5949.3596" DelE="          0.3722"
Co    -3.36137827    0.08591184   -0.03759776       1
Ni     0.04823768    0.03914585   -3.51790207       2
Co     3.72145431    0.00955618    0.02357149       3
Co     0.12411896    0.03710458    3.58565605       4
Co     0.12865042   -3.52006266    0.03542820       5
Co     0.06669148    3.68075495   -0.02693389       6
Cr    -1.70561590   -1.84629839    0.07835625       7
Co    -1.72388714    2.02781090    0.07027356       8
Ni     0.10770890   -1.79802638   -1.80014344       9
Ni     0.08479090    1.88597621   -1.76986897      10
Ni    -1.65208639    0.04854201    1.76480348      11
Ni     1.83511703    0.03208177   -1.72112241      12
Ni     1.87215223    0.02818576    1.76408219      13
Co     0.09868205   -1.71761808    1.74407962      14
Ni     0.10439056    1.79815728    1.74230449      15
Ni     1.87422019   -1.71420529    0.00818904      16
Ni     1.83641955    1.78294081    0.00593487      17
Co    -0.74607896    0.01876178   -0.57249045      18
          18
Lattice="  24.8920   0.0000   0.0000   0.0000  24.8920   0.0000   0.0000   0.0000  24.8920 " ConfE="      -5950.0893" DelE="         -0.3575"
Co    -3.46573401    0.05194834    0.02977948       1
Ni     0.07955835    0.04325542   -3.55897972       2
Co     3.74530044    0.00829823    0.02828014       3
Co     0.13289450    0.03509951    3.59161787       4
Co     0.12914302   -3.50278095    0.02558199       5
Co     0.05475499    3.64105101   -0.01564860       6
Cr    -1.65893723   -1.69858431    0.05128444       7
Co    -1.67598741    1.82754467    0.01746139       8
Ni     0.08480577   -1.66539657   -1.71119453       9
Ni     0.09243144    1.79219093   -1.72570177      10
Ni    -1.62595113    0.04019685    1.73256697      11
Ni     1.86391279    0.03812569   -1.71746084      12
Ni     1.89686530    0.02263220    1.78052690      13
Co     0.12239008   -1.72587829    1.75772791      14
Ni     0.12376427    1.78947022    1.75336596      15
Ni     1.89726208   -1.70877157    0.01939231      16
Ni     1.86205565    1.77614018    0.02060086      17
Co    -1.68359241    0.05186581   -1.71204940      18
