          18
Lattice="  24.8920   0.0000   0.0000   0.0000  24.8920   0.0000   0.0000   0.0000  24.8920 " ConfE="      -5949.1827" DelE="          0.0000"
Ni    -0.03476713   -3.48130205    0.00912071       1
Cr    -3.46729789    0.05637916   -0.03155083       2
Cr    -0.06669488    0.03424625    3.51704913       3
Co    -0.00099218   -0.02720904   -3.52393737       4
Co     3.54787606    0.02534388    0.03192437       5
Cr    -0.01519957    3.48443146    0.03918621       6
Ni    -1.76574975   -0.01209350    1.73261365       7
Ni     0.00327481   -1.74531427    1.76806658       8
Co    -1.75912896   -0.04948093   -1.72897327       9
Ni     1.81316219   -1.77697367    0.01088372      10
Cr    -0.03958309   -1.67035937   -1.74963851      11
Ni     1.80134694   -0.00432339   -1.76735281      12
Co    -1.73606584    1.82011304   -0.00499228      13
Co     0.00256435    1.76762192    1.77081159      14
Cr     1.82825152    0.04225220    1.80373067      15
Cr    -0.03319383    1.71767080   -1.74036439      16
Co     1.76597097    1.74748637   -0.00763063      17
Co     0.00000000    0.00000000    0.00000000      18
          18
Lattice="  24.8920   0.0000   0.0000   0.0000  24.8920   0.0000   0.0000   0.0000  24.8920 " ConfE="      -5948.4263" DelE="          0.7564"
Ni    -0.02741027   -3.46771082    0.03164559       1
Cr    -3.39405442   -0.00823266   -0.03739909       2
Cr    -0.05143816    0.04579223    3.63393281       3
Co     0.00569396   -0.01310077   -3.57723753       4
Co     3.53676038    0.02587128    0.03586884       5
Cr    -0.02610311    3.50139474    0.04587335       6
Ni    -1.75662848    0.02688003    1.89410362       7
Ni     0.03105509   -1.76698549    1.92973205       8
Co    -1.82234828    0.04456872   -1.94916270       9
Ni     1.73827191   -1.73618191    0.03726733      10
Cr     0.05252963   -1.71029731   -1.90617408      11
Ni     1.75062729   -0.00647009   -1.74323120      12
Co    -1.68925442    1.69792889   -0.00650470      13
Co     0.01858931    1.72096701    1.75991724      14
Cr     1.76294968    0.03219193    1.80975755      15
Cr    -0.05998087    1.65181007   -1.68053868      16
Co     1.69930984    1.69498995    0.00170401      17
Co    -0.85327856   -0.88068181   -0.09167005      18
          18
Lattice="  24.8920   0.0000   0.0000   0.0000  24.8920   0.0000   0.0000   0.0000  24.8920 " ConfE="      -5949.1273" DelE="          0.0554"
Ni     0.01521365   -3.53601730    0.01894976       1
Cr    -3.51736335    0.08043590   -0.01969529       2
Cr    -0.06871412    0.03719339    3.56564653       3
Co     0.00368758   -0.02606648   -3.54731989       4
Co     3.55832363    0.02914738    0.03007081       5
Cr    -0.01823135    3.51207041    0.04858146       6
Ni    -1.73264856    0.01640463    1.73731226       7
Ni     0.04061788   -1.70191638    1.75430588       8
Co    -1.72183499   -0.00537995   -1.75610964       9
Ni     1.77687033   -1.74411632    0.01152352      10
Cr    -0.01272675   -1.65941243   -1.75717728      11
Ni     1.76735618   -0.00476514   -1.74579889      12
Co    -1.68855321    1.77454525   -0.01306754      13
Co     0.02466297    1.72893317    1.74595184      14
Cr     1.84807315    0.05345215    1.81481069      15
Cr    -0.03379663    1.68448925   -1.67185397      16
Co     1.71318340    1.69747931    0.00127614      17
Co    -1.72865418   -1.73623180   -0.02443249      18
