          18
Lattice="  24.8920   0.0000   0.0000   0.0000  24.8920   0.0000   0.0000   0.0000  24.8920 " ConfE="      -5926.3471" DelE="          0.0000"
Cr    -0.13584303   -3.54621788    0.02967693       1
Co     3.44431518   -0.03897178    0.07473003       2
Ni    -0.06878181    3.57255670    0.05418116       3
Cr    -3.62026208    0.02017488    0.04407824       4
Cr    -0.08587527    0.01418606   -3.45212628       5
Cr    -0.13473710    0.01949721    3.65959681       6
Co    -0.06727216   -1.79441219   -1.67245065       7
Cr     0.00210762   -1.76847761    1.69593922       8
Co     1.67894438   -0.03825291   -1.69760883       9
Ni     1.70851786    0.00819053    1.85606783      10
Co    -1.89162721   -1.74643821    0.03407219      11
Cr     1.72220494    1.79792322    0.02151739      12
Co    -1.83444188    1.78763139    0.03392211      13
Cr    -1.85187518    0.04061877   -1.71527874      14
Ni    -1.82442343    0.03159984    1.77298618      15
Co    -0.06885576    1.76309259   -1.73356732      16
Co    -0.04941302    1.76942934    1.82621570      17
Cr     0.00000000    0.00000000    0.00000000      18
          18
Lattice="  24.8920   0.0000   0.0000   0.0000  24.8920   0.0000   0.0000   0.0000  24.8920 " ConfE="      -5925.7220" DelE="          0.6251"
Cr    -0.16090914   -3.51208206    0.05000862       1
Co     3.36885845   -0.01404111    0.09251309       2
Ni    -0.07009352    3.58038719    0.06032012       3
Cr    -3.59763736    0.01294134    0.03877232       4
Cr    -0.13436207    0.03770695   -3.53590690       5
Cr    -0.18415509    0.04814200    3.71363890       6
Co    -0.10468689   -1.80344696   -1.82641181       7
Cr    -0.08977414   -1.78970329    1.92058346       8
Co     1.70673041    0.01775894   -1.85425452       9
Ni     1.72981522    0.00746414    2.02667097      10
Co    -1.81229671   -1.73235038    0.03219998      11
Cr     1.65458452    1.73621165    0.05758175      12
Co    -1.78871144    1.73473954    0.02610179      13
Cr    -1.76681149    0.02402568   -1.65694072      14
Ni    -1.78452803    0.02082524    1.75589684      15
Co    -0.05234668    1.66743401   -1.67503845      16
Co    -0.01869092    1.71785418    1.79285243      17
Cr     0.67153925   -0.70273117    0.01568434      18
          18
Lattice="  24.8920   0.0000   0.0000   0.0000  24.8920   0.0000   0.0000   0.0000  24.8920 " ConfE="      -5926.0906" DelE="          0.2565"
Cr    -0.09299587   -3.54713263    0.05859030       1
Co     3.48864361   -0.03068196    0.07332437       2
Ni    -0.07077355    3.56922953    0.05815582       3
Cr    -3.61369858    0.02035039    0.03184711       4
Cr    -0.13161009    0.03776293   -3.51054533       5
Cr    -0.16826192    0.04158247    3.67799475       6
Co    -0.12482168   -1.75552558   -1.73315787       7
Cr    -0.13089894   -1.72529771    1.79101438       8
Co     1.64934249    0.01093694   -1.73950217       9
Ni     1.69083275    0.01295012    1.91651811      10
Co    -1.82208289   -1.71893508    0.03322904      11
Cr     1.63618627    1.66480186    0.03353553      12
Co    -1.82217343    1.76394567    0.02489914      13
Cr    -1.83129659    0.05990806   -1.69209498      14
Ni    -1.82577712    0.05006903    1.75610803      15
Co    -0.09298698    1.70297640   -1.69841831      16
Co    -0.04926277    1.75479198    1.80774777      17
Cr     1.48341985   -1.50804838    0.00253163      18
