          18
Lattice="  24.8920   0.0000   0.0000   0.0000  24.8920   0.0000   0.0000   0.0000  24.8920 " ConfE="      -5924.5686" DelE="          0.0000"
Ni    -3.56826392   -0.00997375   -0.02123310       1
Cr     0.07984006    0.00903905    3.41785071       2
Co    -0.03341699    3.48166449   -0.02806192       3
Cr     3.54029517    0.00437348   -0.08167555       4
Cr    -0.01036256   -3.59128683   -0.01054817       5
Co    -0.01387547   -0.08138349   -3.60567886       6
Ni    -1.74177773   -0.00470511    1.72675934       7
Ni     1.73137912    1.73937417   -0.01925303       8
Co    -1.74195829    1.77167004    0.01970513       9
Ni    -1.79181548   -1.80144206   -0.02423327      10
Co     1.82252681   -0.06739015    1.74518973      11
Ni     1.78062301   -1.80935056   -0.02848952      12
Co     0.00811357   -1.84665945    1.77196660      13
Co    -0.00511209    1.73429703   -1.87438081      14
Co    -1.75594978   -0.03426113   -1.82848639      15
Cr     1.69784281   -0.01319971   -1.84659740      16
Co     0.00468741   -1.83371703   -1.80820252      17
Ni     0.00000000    0.00000000    0.00000000      18
          18
Lattice="  24.8920   0.0000   0.0000   0.0000  24.8920   0.0000   0.0000   0.0000  24.8920 " ConfE="      -5924.1098" DelE="          0.4588"
Ni    -3.62718417   -0.02598046   -0.03997125       1
Cr     0.07018026    0.00525968    3.35861861       2
Co    -0.01714761    3.44227179   -0.01962156       3
Cr     3.59598088    0.00760632   -0.11014625       4
Cr    -0.00777998   -3.60294676   -0.00562460       5
Co    -0.02890803   -0.07510992   -3.61792765       6
Ni    -1.90601739   -0.08160583    1.73281298       7
Ni     1.89431825    1.79336234   -0.06501159       8
Co    -1.86282242    1.77794367   -0.00971084       9
Ni    -1.79770012   -1.80860970   -0.02022129      10
Co     2.05954928   -0.15061054    1.79308174      11
Ni     1.77186694   -1.78140255   -0.02190157      12
Co     0.02491291   -1.78553260    1.76025452      13
Co    -0.00531971    1.67378987   -1.78983589      14
Co    -1.74550790   -0.03506564   -1.77832703      15
Cr     1.64356142    0.00577053   -1.77828415      16
Co     0.00053880   -1.78429814   -1.76272314      17
Ni     0.07017274    0.64090090    0.73870084      18
          18
Lattice="  24.8920   0.0000   0.0000   0.0000  24.8920   0.0000   0.0000   0.0000  24.8920 " ConfE="      -5924.7521" DelE="         -0.1835"
Ni    -3.58576290   -0.01808772   -0.03003540       1
Cr     0.03295512   -0.07776366    3.50026325       2
Co    -0.01866254    3.50847588   -0.05454118       3
Cr     3.59413763   -0.00254069   -0.08781836       4
Cr     0.00383655   -3.59777562   -0.01252291       5
Co    -0.02944384   -0.08104239   -3.63788353       6
Ni    -1.74199946   -0.04797188    1.68526671       7
Ni     1.74548874    1.68352109   -0.05787288       8
Co    -1.75487319    1.73800698   -0.02142632       9
Ni    -1.76100065   -1.78710522   -0.03636671      10
Co     1.85146597   -0.09162405    1.73661817      11
Ni     1.75512335   -1.76932247   -0.04006276      12
Co     0.01754070   -1.80358077    1.75938249      13
Co    -0.00307261    1.67614259   -1.82600646      14
Co    -1.73812467   -0.03727506   -1.80969633      15
Cr     1.64316040   -0.02075600   -1.83519045      16
Co     0.00795162   -1.79545415   -1.79372386      17
Ni     0.03093221    1.65890609    1.68267766      18
