          18
Lattice="  24.8920   0.0000   0.0000   0.0000  24.8920   0.0000   0.0000   0.0000  24.8920 " ConfE="      -5927.5226" DelE="          0.0000"
Cr    -3.48069865   -0.00184572   -0.03446609       1
Co     0.01093096   -3.55181715    0.01196665       2
Cr     3.61246143   -0.00384010   -0.00618134       3
Ni     0.01866021    3.61070733    0.01085088       4
Ni     0.01686962    0.01945550   -3.51197545       5
Co     0.00088481   -0.03674518    3.54944178       6
Cr    -1.73129783    0.02301014   -1.67376567       7
Cr    -1.68611922   -0.00273753    1.63321538       8
Ni    -0.00631473   -1.78377159   -1.72047418       9
Cr    -0.10483127   -1.79666276    1.68767506      10
Co    -1.76388675    1.83539913    0.02587200      11
Co     1.82759987   -1.75975800    0.01670459      12
Cr     1.76080310    1.79733338    0.02604033      13
Co     0.05014185    1.82159986   -1.76074201      14
Co     0.02074492    1.79036437    1.79919828      15
Ni     1.78596352    0.01679262   -1.75178707      16
Ni     1.77901762   -0.01100252    1.77659998      17
Co     0.00000000    0.00000000    0.00000000      18
          18
Lattice="  24.8920   0.0000   0.0000   0.0000  24.8920   0.0000   0.0000   0.0000  24.8920 " ConfE="      -5926.9721" DelE="          0.5505"
Cr    -3.36245619   -0.03632306   -0.06634518       1
Co    -0.01811020   -3.50227928    0.00626091       2
Cr     3.60118258   -0.02136950   -0.00004238       3
Ni     0.00766688    3.61287223    0.01450472       4
Ni     0.03151718    0.02549135   -3.56814816       5
Co     0.04879263   -0.00684221    3.62337167       6
Cr    -1.73521465    0.06636192   -1.85652902       7
Cr    -1.72173587    0.09532227    2.00748523       8
Ni     0.03260466   -1.81353826   -1.84179536       9
Cr    -0.04764579   -1.81901513    1.87306331      10
Co    -1.73461720    1.75132885    0.04554021      11
Co     1.72442010   -1.72094953    0.03145414      12
Cr     1.65353537    1.71380084    0.01943314      13
Co     0.03667294    1.79055756   -1.74354650      14
Co     0.01714088    1.75671401    1.78591679      15
Ni     1.74103827    0.00635388   -1.73770310      16
Ni     1.74620304   -0.00918987    1.78079340      17
Co    -0.75139961   -0.65894302    0.07069805      18
          18
Lattice="  24.8920   0.0000   0.0000   0.0000  24.8920   0.0000   0.0000   0.0000  24.8920 " ConfE="      -5927.7338" DelE="         -0.2112"
Cr    -3.51880684   -0.00644598    0.06646782       1
Co     0.03900982   -3.60112281    0.00429283       2
Cr     3.64532850    0.00015956   -0.01558087       3
Ni     0.01845557    3.63426760    0.01211520       4
Ni     0.02380883    0.02518251   -3.51789043       5
Co     0.06138697    0.00469201    3.56080329       6
Cr    -1.70807255    0.03652119   -1.62890526       7
Cr    -1.45607266   -0.02308045    1.46718644       8
Ni     0.01341067   -1.74870965   -1.69693604       9
Cr     0.10104711   -1.79340146    1.70579880      10
Co    -1.73620259    1.79266945    0.02793953      11
Co     1.80705888   -1.74288518    0.01828063      12
Cr     1.74657178    1.80126810   -0.00201118      13
Co     0.05239013    1.78810430   -1.70930236      14
Co     0.04457800    1.78612091    1.75512058      15
Ni     1.76454242    0.02377410   -1.71396880      16
Ni     1.78667357    0.03102911    1.73538664      17
Co    -1.77388276   -1.83575256    0.02011550      18
