          18
Lattice="  24.8920   0.0000   0.0000   0.0000  24.8920   0.0000   0.0000   0.0000  24.8920 " ConfE="      -5947.9302" DelE="          0.0000"
Co     0.03086052    3.47359582    0.04219627       1
Ni     0.01201623   -3.60464631    0.01997944       2
Ni     3.56513371   -0.02102767    0.02391337       3
Cr     0.01726584    0.01760979    3.59202937       4
Ni    -0.03148940   -0.04169624   -3.54970133       5
Co    -3.51375684   -0.09031423    0.08724085       6
Ni    -1.76832521    1.72720924    0.00570013       7
Ni    -1.79927492   -0.03901698   -1.77808359       8
Cr    -1.60699341    0.09171022    1.85100531       9
Cr     1.78686602    1.74852653    0.04149947      10
Cr     1.67790527    0.01621463    1.79268205      11
Cr    -1.76379324   -1.79314204    0.08175738      12
Cr     0.02152119    1.75416823   -1.82677563      13
Co     1.77093444   -0.03433786   -1.77898350      14
Cr     1.78857167   -1.80410863   -0.01742295      15
Co     0.01554113   -1.82352196    1.80278278      16
Cr    -0.03523452   -1.81482592   -1.75255764      17
Ni     0.00000000    0.00000000    0.00000000      18
          18
Lattice="  24.8920   0.0000   0.0000   0.0000  24.8920   0.0000   0.0000   0.0000  24.8920 " ConfE="      -5947.3579" DelE="          0.5723"
Co     0.03459343    3.46220490    0.03388677       1
Ni     0.01311603   -3.59949262    0.02935221       2
Ni     3.65255547   -0.04503229    0.00132899       3
Cr     0.00269564    0.06697907    3.54326404       4
Ni    -0.03413960   -0.02421836   -3.55397193       5
Co    -3.59838253   -0.09589163    0.05309676       6
Ni    -1.94716714    1.73681901   -0.05798557       7
Ni    -1.80354266   -0.03165464   -1.75405466       8
Cr    -1.89850782   -0.08644639    1.83111689       9
Cr     1.93710878    1.73103168   -0.04625437      10
Cr     1.90766080   -0.06340980    1.82168494      11
Cr    -1.66467620   -1.71610888    0.05629643      12
Cr     0.00543863    1.66890967   -1.70842413      13
Co     1.75593166   -0.01780541   -1.72070453      14
Cr     1.71022196   -1.70867056    0.01861884      15
Co     0.02430888   -1.73192297    1.76865573      16
Cr    -0.01697381   -1.70164298   -1.68541155      17
Ni    -0.01824751    1.02420384    1.03368838      18
          18
Lattice="  24.8920   0.0000   0.0000   0.0000  24.8920   0.0000   0.0000   0.0000  24.8920 " ConfE="      -5947.8820" DelE="          0.0482"
Co     0.03359848    3.52276165    0.01947174       1
Ni     0.01445786   -3.62122156    0.01586202       2
Ni     3.59855510   -0.04094984    0.01148628       3
Cr     0.00522048   -0.01851070    3.64640527       4
Ni    -0.03192885   -0.03069086   -3.58096785       5
Co    -3.55454123   -0.09512141    0.06553463       6
Ni    -1.75042617    1.67089748    0.00286069       7
Ni    -1.78215562   -0.04064063   -1.77103003       8
Cr    -1.70953225   -0.09736209    1.80526096       9
Cr     1.75864183    1.64074663    0.00362980      10
Cr     1.73066428   -0.06091944    1.77496770      11
Cr    -1.63159108   -1.72912361    0.02968203      12
Cr     0.02051386    1.70180478   -1.76290225      13
Co     1.73432171   -0.03040643   -1.74492487      14
Cr     1.67499923   -1.71086241   -0.02302992      15
Co     0.01821981   -1.77159728    1.78930563      16
Cr    -0.02581053   -1.75345313   -1.74510228      17
Ni    -0.00287090    1.67314256    1.73266175      18
