          18
Lattice="  24.8920   0.0000   0.0000   0.0000  24.8920   0.0000   0.0000   0.0000  24.8920 " ConfE="      -5937.8692" DelE="          0.0000"
Ni     0.00827313   -3.49597650   -0.03699942       1
Co    -0.00790313    0.08547512    3.53620700       2
Co    -3.48450589    0.03863855    0.03647816       3
Ni     0.04167448    3.59883685   -0.00363595       4
Co     3.50470167    0.06835788   -0.04378558       5
Cr     0.00330311    0.03784117   -3.62071205       6
Ni     0.06916474    1.81746025    1.76470991       7
Ni    -1.71890623    1.77333530    0.06288501       8
Co    -0.06055713   -1.61238883    1.65363362       9
Co    -1.74518561   -1.67758557   -0.06612227      10
Ni     1.77687623   -1.73999891   -0.04287373      11
Ni     1.80201752    0.03592384    1.75561143      12
Cr     0.00533039   -1.71915292   -1.81201985      13
Cr     1.82271255    1.73025945   -0.08152320      14
Co    -0.02670729    1.79861079   -1.78703244      15
Cr    -1.77070730    0.04146397   -1.83815653      16
Co     1.70280549    0.02731998   -1.82345975      17
Cr     0.00000000    0.00000000    0.00000000      18
          18
Lattice="  24.8920   0.0000   0.0000   0.0000  24.8920   0.0000   0.0000   0.0000  24.8920 " ConfE="      -5937.2444" DelE="          0.6249"
Ni     0.00792524   -3.53603357   -0.04863848       1
Co     0.00474461    0.07593416    3.46825204       2
Co    -3.41345290    0.05010967    0.00993739       3
Ni     0.06237335    3.64224939   -0.01571826       4
Co     3.51889303    0.06578026   -0.04034335       5
Cr    -0.00074576    0.03989860   -3.62522612       6
Ni     0.13088727    1.93177467    1.76618859       7
Ni    -1.73965367    1.91885181   -0.00663308       8
Co     0.00504744   -1.79888734    1.73873410       9
Co    -1.76938195   -1.79813197   -0.09152226      10
Ni     1.69654049   -1.70856983   -0.03496201      11
Ni     1.74855218    0.03444477    1.71270559      12
Cr    -0.01779907   -1.66863525   -1.76909499      13
Cr     1.79204091    1.69580804   -0.09739786      14
Co    -0.02992538    1.75601267   -1.72942562      15
Cr    -1.74515562    0.04858793   -1.83010128      16
Co     1.64247354    0.03345531   -1.76018202      17
Cr    -0.63306172   -0.00377511    0.67567835      18
          18
Lattice="  24.8920   0.0000   0.0000   0.0000  24.8920   0.0000   0.0000   0.0000  24.8920 " ConfE="      -5937.9607" DelE="         -0.0915"
Ni     0.00659656   -3.52320687   -0.04817207       1
Co     0.02862488    0.06990661    3.58125081       2
Co    -3.53095320    0.05137362   -0.01259742       3
Ni     0.05819612    3.61985088   -0.01229546       4
Co     3.52633994    0.06435135   -0.04508485       5
Cr     0.00438841    0.04074700   -3.63206971       6
Ni     0.09468571    1.82250366    1.73948093       7
Ni    -1.68595236    1.78003467    0.02022631       8
Co    -0.06367779   -1.63085820    1.66297982       9
Co    -1.70358419   -1.65238879   -0.10889795      10
Ni     1.72697947   -1.72099848   -0.05733573      11
Ni     1.74854618    0.03393971    1.70640178      12
Cr    -0.00497669   -1.67800420   -1.80302434      13
Cr     1.83901837    1.71324716   -0.09687164      14
Co    -0.01666895    1.77823137   -1.77219293      15
Cr    -1.72856923    0.04687277   -1.80538041      16
Co     1.65214592    0.04033203   -1.77904255      17
Cr    -1.67360557    0.02265615    1.74548407      18
