          18
Lattice="  24.8920   0.0000   0.0000   0.0000  24.8920   0.0000   0.0000   0.0000  24.8920 " ConfE="      -5945.0378" DelE="          0.0000"
Ni    -0.02166571   -3.51208814    0.01201560       1
Ni    -0.02866166   -0.04816371   -3.49496958       2
Ni    -0.03348197    3.58286804   -0.01023740       3
Ni    -0.00417839    0.04518513    3.58030487       4
Co    -3.52762988    0.02609309    0.02024947       5
Cr     3.49638375    0.05067245    0.02496037       6
Cr    -1.72634029   -1.71864210    0.00931975       7
Co     1.68505084   -1.72099913    0.00054700       8
Cr    -1.78944220    0.00504562   -1.72840440       9
Co     1.73214350   -0.02664628   -1.75782602      10
Cr     0.00947942   -1.73768234    1.80827439      11
Ni    -0.01573500    1.80541327   -1.78286383      12
Co    -0.02796107    1.78865000    1.77967083      13
Co    -1.77872346    0.00621406    1.79107352      14
Co     1.75215215    0.01823770    1.79013484      15
Cr    -1.75148420    1.78934537   -0.00117496      16
Co     1.73312711    1.80159923    0.01685549      17
Cr     0.00000000    0.00000000    0.00000000      18
          18
Lattice="  24.8920   0.0000   0.0000   0.0000  24.8920   0.0000   0.0000   0.0000  24.8920 " ConfE="      -5944.2918" DelE="          0.7460"
Ni    -0.03211759   -3.45491992    0.00369203       1
Ni    -0.05753966   -0.02950590   -3.47183859       2
Ni    -0.03226177    3.57731474   -0.01661170       3
Ni    -0.00761747    0.03368943    3.57814935       4
Co    -3.59098990    0.02274514    0.03301400       5
Cr     3.59812645    0.07254046    0.05764776       6
Cr    -1.87760003   -1.75192257    0.07296098       7
Co     1.80332054   -1.72177466    0.00344746       8
Cr    -2.03066887    0.07971397   -1.79346962       9
Co     1.88541925    0.04594171   -1.77972798      10
Cr     0.02025778   -1.69740777    1.74196104      11
Ni    -0.03206322    1.74061284   -1.74154937      12
Co    -0.03393966    1.73289638    1.71713068      13
Co    -1.74982645   -0.02973014    1.72547758      14
Co     1.71662624   -0.00897585    1.72901275      15
Cr    -1.68654353    1.67245768    0.02405953      16
Co     1.72224101    1.76123804    0.00601042      17
Cr    -0.05314095   -0.75141541   -0.90634055      18
          18
Lattice="  24.8920   0.0000   0.0000   0.0000  24.8920   0.0000   0.0000   0.0000  24.8920 " ConfE="      -5944.7496" DelE="          0.2882"
Ni    -0.01611381   -3.53737527    0.02023098       1
Ni    -0.03997905    0.02622150   -3.56391524       2
Ni    -0.03815434    3.57809865   -0.00481130       3
Ni    -0.00569166    0.03967961    3.59797714       4
Co    -3.57830443    0.02965583    0.02658737       5
Cr     3.53365009    0.06356695    0.04654018       6
Cr    -1.66732804   -1.57183948    0.03625109       7
Co     1.69024144   -1.69508559    0.02519519       8
Cr    -1.82563204    0.05988508   -1.74166851       9
Co     1.74977030    0.01884751   -1.74643819      10
Cr     0.04253417   -1.68536765    1.73782936      11
Ni    -0.02536380    1.74469687   -1.72679588      12
Co    -0.03156685    1.76110436    1.75822812      13
Co    -1.76063967    0.00515269    1.77073545      14
Co     1.72454893    0.01288253    1.77139421      15
Cr    -1.70937618    1.70224196    0.04536940      16
Co     1.72186579    1.77950801    0.02879635      17
Cr     0.05801352   -1.65614708   -1.74919296      18
