          18
Lattice="  24.8920   0.0000   0.0000   0.0000  24.8920   0.0000   0.0000   0.0000  24.8920 " ConfE="      -5938.2725" DelE="          0.0000"
Ni     0.01018499   -0.03799053   -3.52936886       1
Ni     0.00328755   -3.48461749   -0.00745029       2
Ni    -3.52709463    0.03198641   -0.02901663       3
Co     0.05039554    3.59739156   -0.00084859       4
Co    -0.00789708    0.04823359    3.57548646       5
Co     3.52537229    0.07197094    0.00920972       6
Ni    -1.75603157   -0.02389897   -1.80756070       7
Ni    -1.74594542   -1.74364810   -0.00940916       8
Ni     1.74367657   -0.02360474   -1.78138275       9
Ni     1.72314061   -1.73928329   -0.01964679      10
Ni    -0.01215326    1.79062995   -1.75840730      11
Ni     1.75421893    0.03840432    1.78471762      12
Co    -1.76410824    1.82552133    0.04517003      13
Co    -1.77153235    0.02628979    1.80466557      14
Cr    -0.05446411   -1.73025529    1.84151862      15
Co     0.01130894    1.82998161    1.80268514      16
Cr     1.73412167    1.82055465    0.02347431      17
Ni     0.00000000    0.00000000    0.00000000      18
          18
Lattice="  24.8920   0.0000   0.0000   0.0000  24.8920   0.0000   0.0000   0.0000  24.8920 " ConfE="      -5937.3463" DelE="          0.9261"
Ni     0.00864185   -0.03801707   -3.48494821       1
Ni     0.00148951   -3.43420935   -0.01757578       2
Ni    -3.59454797    0.04285407   -0.01864034       3
Co     0.05277276    3.60559035   -0.01194981       4
Co    -0.00272073    0.03815056    3.57734159       5
Co     3.58693409    0.08940169    0.02692861       6
Ni    -1.91015282    0.04676571   -1.82858634       7
Ni    -1.90888332   -1.75716961    0.04048579       8
Ni     1.89975527    0.06360879   -1.78743860       9
Ni     1.89005104   -1.74168789    0.02632115      10
Ni    -0.02117390    1.69455776   -1.68340362      11
Ni     1.72772244    0.02854590    1.73229402      12
Co    -1.75609587    1.78204835    0.05231445      13
Co    -1.72379446    0.00450622    1.75317461      14
Cr    -0.04651747   -1.66959588    1.70085737      15
Co     0.02147594    1.80151181    1.75681090      16
Cr     1.70767839    1.77921250    0.02481735      17
Ni     0.00086735   -1.04054220   -1.06092817      18
          18
Lattice="  24.8920   0.0000   0.0000   0.0000  24.8920   0.0000   0.0000   0.0000  24.8920 " ConfE="      -5938.0701" DelE="          0.2023"
Ni    -0.00308012    0.01202382   -3.56592569       1
Ni    -0.00369146   -3.52539917    0.01310087       2
Ni    -3.54419195    0.02835743   -0.03177312       3
Co     0.04557720    3.62642975   -0.00277868       4
Co    -0.00610350    0.04759415    3.59621184       5
Co     3.54219945    0.07545497    0.01837297       6
Ni    -1.76689467    0.01665322   -1.78701129       7
Ni    -1.73343504   -1.71491085    0.00271070       8
Ni     1.73953040    0.02657463   -1.73871609       9
Ni     1.69206938   -1.70213245    0.01665190      10
Ni    -0.01704717    1.76129485   -1.70737870      11
Ni     1.70378941    0.03415110    1.75010264      12
Co    -1.74714244    1.80094393    0.05562716      13
Co    -1.72633271    0.01775627    1.77225337      14
Cr    -0.08037593   -1.70913300    1.79827786      15
Co     0.01239293    1.81034688    1.76315782      16
Cr     1.70180260    1.81377159    0.04866356      17
Ni    -0.00014128   -1.73151920   -1.76791683      18
