          18
Lattice="  24.8920   0.0000   0.0000   0.0000  24.8920   0.0000   0.0000   0.0000  24.8920 " ConfE="      -5941.0247" DelE="          0.0000"
Ni     0.01915319    0.03107595   -3.54022475       1
Cr     0.00485911   -3.49605634    0.03899278       2
Cr    -3.45598200    0.00599540    0.05993349       3
Ni     3.58589132    0.03476907   -0.02742492       4
Co     0.01067648    3.59373949    0.01003428       5
Cr    -0.00028623    0.02280799    3.47558717       6
Ni     0.02551165   -1.74014989   -1.74778183       7
Cr    -1.74328748    0.01572365   -1.69890338       8
Ni     0.02335633    1.82633995   -1.79141437       9
Ni     1.79743336    1.83181587   -0.04172656      10
Co    -0.02760947   -1.74162647    1.67550756      11
Co    -1.73222867    0.02100254    1.66964413      12
Cr     1.82787051    0.05768672   -1.79210088      13
Co     1.82006342   -1.74589734   -0.00441950      14
Cr    -1.73321418    1.93063571   -0.01699100      15
Co     1.81365737    0.03539925    1.73536372      16
Cr     0.03896669    1.84503419    1.75189082      17
Cr     0.00000000    0.00000000    0.00000000      18
          18
Lattice="  24.8920   0.0000   0.0000   0.0000  24.8920   0.0000   0.0000   0.0000  24.8920 " ConfE="      -5940.3663" DelE="          0.6583"
Ni     0.05616103    0.04033934   -3.60087681       1
Cr     0.06806807   -3.51808341    0.00729322       2
Cr    -3.51514103    0.03287225    0.02652198       3
Ni     3.57115839    0.02314615   -0.02971049       4
Co    -0.00583703    3.59355596    0.01671335       5
Cr     0.03775054    0.07768471    3.59333037       6
Ni     0.07042571   -1.77612670   -1.91422723       7
Cr    -1.71919542    0.08496593   -1.89868066       8
Ni     0.02005774    1.78451484   -1.76451876       9
Ni     1.76438719    1.80017772   -0.04376806      10
Co     0.05977922   -1.70931279    1.84909008      11
Co    -1.75903831    0.07535693    1.85457164      12
Cr     1.73928070    0.03060417   -1.74649217      13
Co     1.68926556   -1.67407621   -0.03061374      14
Cr    -1.73824215    1.82913218   -0.00174340      15
Co     1.75324149    0.05594253    1.70978639      16
Cr     0.00031303    1.73377914    1.68813962      17
Cr    -0.95401758   -0.94578714   -0.01041224      18
          18
Lattice="  24.8920   0.0000   0.0000   0.0000  24.8920   0.0000   0.0000   0.0000  24.8920 " ConfE="      -5940.9941" DelE="          0.0306"
Ni     0.03312314    0.04073509   -3.56877213       1
Cr     0.07043353   -3.55449208    0.02071911       2
Cr    -3.54469939    0.03879845    0.04857204       3
Ni     3.59073155    0.04075157   -0.03002148       4
Co     0.00949562    3.62486505    0.00962628       5
Cr     0.00665256    0.04649157    3.51184702       6
Ni     0.04974064   -1.71402963   -1.75620691       7
Cr    -1.67992865    0.05274135   -1.68635016       8
Ni     0.03354107    1.81024581   -1.77200155       9
Ni     1.77607123    1.82063379   -0.04638567      10
Co     0.01325120   -1.69111246    1.69450298      11
Co    -1.68077241    0.08163411    1.65180012      12
Cr     1.80322182    0.05885245   -1.77475075      13
Co     1.76700440   -1.70534966   -0.01068700      14
Cr    -1.69513761    1.88648383   -0.01240280      15
Co     1.76474481    0.06415471    1.69698312      16
Cr     0.04384085    1.81534033    1.72100298      17
Cr    -1.68907101   -1.72124207    0.01554892      18
