          18
Lattice="  24.8920   0.0000   0.0000   0.0000  24.8920   0.0000   0.0000   0.0000  24.8920 " ConfE="      -5929.5808" DelE="          0.0000"
Cr    -3.53112640    0.09183877    0.02032561       1
Co     0.02690846   -3.56591534   -0.01424721       2
Cr     3.52224050    0.00300774   -0.05019087       3
Ni     0.01141006    3.59356022    0.03518460       4
Co     0.03141569   -0.00746174   -3.52263165       5
Co    -0.05974118    0.05684929    3.58197761       6
Ni    -1.74524868    0.00959237   -1.70890181       7
Ni    -1.77346255    0.01667519    1.76498940       8
Co     0.01590294   -1.81107350   -1.77599231       9
Ni    -0.02829444   -1.75454423    1.75757152      10
Co    -1.81189219    1.84686521    0.02816707      11
Co     1.79578640   -1.79868484   -0.02994690      12
Ni     1.76021929    1.80059196    0.01583737      13
Co     0.02843703    1.79523935   -1.77081690      14
Ni     0.00315045    1.81547841    1.79836202      15
Co     1.82307332   -0.02281079   -1.79893432      16
Ni     1.76418003    0.03593003    1.80305844      17
Ni     0.00000000    0.00000000    0.00000000      18
          18
Lattice="  24.8920   0.0000   0.0000   0.0000  24.8920   0.0000   0.0000   0.0000  24.8920 " ConfE="      -5928.6725" DelE="          0.9082"
Cr    -3.47118647    0.31721517    0.05037949       1
Co     0.00306823   -3.56819232   -0.02288967       2
Cr     3.52743526   -0.00218011   -0.05691269       3
Ni     0.00409028    3.60698696    0.03424808       4
Co     0.04013044   -0.01018859   -3.55894950       5
Co    -0.03904143    0.06220599    3.62313982       6
Ni    -1.78647045    0.17335615   -1.94224110       7
Ni    -1.79196694    0.08234477    1.90638040       8
Co     0.08830825   -1.91315889   -1.93273028       9
Ni    -0.01246974   -1.76901394    1.86577093      10
Co    -1.75364055    1.80877929    0.00548619      11
Co     1.72326479   -1.78916588   -0.02431928      12
Ni     1.70439258    1.75961033    0.01069001      13
Co     0.04135553    1.79801824   -1.79036995      14
Ni    -0.00167395    1.81769281    1.80990638      15
Co     1.77415941   -0.04490375   -1.76810755      16
Ni     1.72345885    0.02592950    1.77547119      17
Ni    -0.73474147   -0.64407083   -0.08934126      18
          18
Lattice="  24.8920   0.0000   0.0000   0.0000  24.8920   0.0000   0.0000   0.0000  24.8920 " ConfE="      -5929.5960" DelE="         -0.0152"
Cr    -3.55224239    0.15817721   -0.01176706       1
Co     0.04002785   -3.59641296   -0.00655002       2
Cr     3.53536603    0.00448657   -0.05244740       3
Ni     0.00982348    3.60532309    0.03273403       4
Co     0.03099304    0.00412474   -3.55331931       5
Co    -0.04736285    0.06541040    3.60166930       6
Ni    -1.69972966    0.04438054   -1.71955539       7
Ni    -1.75322939    0.05351183    1.77558476       8
Co     0.04527481   -1.79300470   -1.79020798       9
Ni    -0.00002945   -1.72239297    1.76775233      10
Co    -1.79938874    1.81622178    0.02294615      11
Co     1.75306822   -1.77611516   -0.03247719      12
Ni     1.73057857    1.77330512    0.00777836      13
Co     0.03830231    1.78065239   -1.76147586      14
Ni     0.00343380    1.80150913    1.77615176      15
Co     1.80320412   -0.02097595   -1.77206510      16
Ni     1.74244105    0.03529875    1.75938309      17
Ni    -1.71994811   -1.69004240    0.00008249      18
