          18
Lattice="  24.8920   0.0000   0.0000   0.0000  24.8920   0.0000   0.0000   0.0000  24.8920 " ConfE="      -5938.7505" DelE="          0.0000"
Ni     0.05004255   -0.07507472   -3.47718538       1
Ni     3.49332952   -0.05335771    0.02716018       2
Ni    -0.03104531   -0.09247587    3.60658681       3
Co    -3.58570433   -0.06128478    0.02440611       4
Cr     0.02930246   -3.62082399    0.01647201       5
Cr    -0.11165885    3.47252206    0.00634129       6
Co     0.03270357   -1.82684710   -1.74489582       7
Ni     0.06490880    1.68141689   -1.72857555       8
Co     1.72034502   -1.82257265    0.00278476       9
Co     1.77588832    1.75096687    0.02955357      10
Co    -1.79328543   -0.08763581   -1.72340477      11
Ni     1.75546216   -0.06774538    1.83190070      12
Ni    -1.79526887   -0.08842780    1.81621503      13
Ni    -1.76455985   -1.82922558    0.05715525      14
Co    -1.78503921    1.73533630    0.04078585      15
Ni    -0.02799272   -1.83917459    1.81715486      16
Co    -0.00216117    1.71645154    1.79404576      17
Cr     0.00000000    0.00000000    0.00000000      18
          18
Lattice="  24.8920   0.0000   0.0000   0.0000  24.8920   0.0000   0.0000   0.0000  24.8920 " ConfE="      -5937.4716" DelE="          1.2788"
Ni     0.04008919   -0.07421716   -3.39685639       1
Ni     3.44230617   -0.06249934    0.02760660       2
Ni    -0.06202805   -0.11671487    3.53055445       3
Co    -3.52207292   -0.05424045    0.03447353       4
Cr    -0.02767438   -3.79760095    0.01689720       5
Cr    -0.11539753    3.60243452    0.00862350       6
Co    -0.02082644   -1.98576561   -1.74050670       7
Ni     0.00651571    1.82181260   -1.72821002       8
Co     1.76757625   -2.00407125    0.06022642       9
Co     1.75544445    1.82135664    0.03670523      10
Co    -1.72198966   -0.08292220   -1.64465598      11
Ni     1.68280311   -0.08731340    1.74793897      12
Ni    -1.09395303   -0.01960877    1.11322540      13
Ni    -1.76451518   -1.97533329    0.01958828      14
Co    -1.78062775    1.92099411   -0.00989347      15
Ni     0.00589858   -1.98818400    1.79796275      16
Co     0.07705153    1.88834161    1.81368806      17
Cr     0.80820604   -0.13846864   -0.78402847      18
          18
Lattice="  24.8920   0.0000   0.0000   0.0000  24.8920   0.0000   0.0000   0.0000  24.8920 " ConfE="      -5938.8414" DelE="         -0.0909"
Ni     0.00136322   -0.06960786   -3.51091586       1
Ni     3.52271127   -0.06269313    0.05327345       2
Ni    -0.06556320   -0.09738518    3.57007423       3
Co    -3.57838880   -0.04916619    0.03286934       4
Cr    -0.01304080   -3.61611040    0.03479760       5
Cr    -0.14835249    3.46711990    0.03097773       6
Co    -0.00502062   -1.86678077   -1.74535451       7
Ni     0.01478383    1.70218888   -1.72095737       8
Co     1.74860183   -1.88105713    0.04520974       9
Co     1.76967709    1.75940642    0.03825123      10
Co    -1.80025941   -0.09862403   -1.76576740      11
Ni     1.76715857   -0.07661099    1.81441753      12
Ni    -0.06074337   -0.05204888    0.05648705      13
Ni    -1.80021956   -1.80434499    0.08827763      14
Co    -1.80083460    1.74009579    0.06769660      15
Ni    -0.07034303   -1.82389002    1.82828626      16
Co    -0.01470209    1.72568468    1.81354297      17
Cr     1.74016363   -0.13573554   -1.72716302      18
