          18
Lattice="  24.8920   0.0000   0.0000   0.0000  24.8920   0.0000   0.0000   0.0000  24.8920 " ConfE="      -5937.8591" DelE="          0.0000"
Ni    -0.03330468   -3.46222233    0.02823166       1
Ni     3.57003638    0.07393216    0.05298018       2
Ni     0.00464987    3.59028200    0.05031325       3
Cr     0.08135288    0.10431826   -3.45376086       4
Co    -3.56952167    0.08185697   -0.01895013       5
Co     0.00412421    0.07066827    3.59039104       6
Ni    -1.78100898   -1.72014546   -0.00722894       7
Ni    -1.80285246    0.03372888    1.79485098       8
Cr    -1.72598972    0.04986819   -1.79738751       9
Cr     1.76902884   -1.74589775    0.03202310      10
Ni    -1.78454282    1.79616204    0.02628110      11
Ni    -0.00411872    1.81754187    1.80408350      12
Co     1.72682677   -0.00690175   -1.75867673      13
Cr    -0.04175130   -1.74156783    1.87892272      14
Cr     1.78304634    0.02494226    1.76918387      15
Co    -0.00285046    1.83251819   -1.76911666      16
Co     1.79096208    1.80196795    0.03461553      17
Ni     0.00000000    0.00000000    0.00000000      18
          18
Lattice="  24.8920   0.0000   0.0000   0.0000  24.8920   0.0000   0.0000   0.0000  24.8920 " ConfE="      -5937.3707" DelE="          0.4883"
Ni    -0.04852812   -3.42017958    0.02180315       1
Ni     3.64102417    0.08371933    0.06413643       2
Ni     0.00607436    3.57600586    0.03887255       3
Cr     0.05144906    0.09527159   -3.39149939       4
Co    -3.62465861    0.08811171   -0.00298116       5
Co     0.00195692    0.07357309    3.59344892       6
Ni    -1.94977103   -1.74496424    0.06135570       7
Ni    -1.81072123    0.03501055    1.77650846       8
Cr    -1.88573756    0.08554397   -1.80372742       9
Cr     1.94911185   -1.78354123    0.08188311      10
Ni    -1.79270158    1.77366562    0.01591644      11
Ni    -0.01363507    1.78167418    1.76440515      12
Co     1.95136504    0.07916091   -1.79978762      13
Cr    -0.04877417   -1.66905357    1.79860477      14
Cr     1.69898292    0.04355152    1.63717467      15
Co    -0.00314576    1.75355913   -1.74536696      16
Co     1.77911784    1.74320854    0.03152597      17
Ni     0.02997392   -0.84736610   -0.80227922      18
          18
Lattice="  24.8920   0.0000   0.0000   0.0000  24.8920   0.0000   0.0000   0.0000  24.8920 " ConfE="      -5937.8530" DelE="          0.0061"
Ni    -0.03300400   -3.49512838    0.05235985       1
Ni     3.59910944    0.08660255    0.06248818       2
Ni     0.00493498    3.59668602    0.05018106       3
Cr     0.07143560    0.13786120   -3.50128459       4
Co    -3.59428491    0.09476934   -0.00363452       5
Co     0.00613082    0.08127717    3.61256282       6
Ni    -1.78775629   -1.68269368    0.04566399       7
Ni    -1.77371062    0.04477440    1.78863947       8
Cr    -1.73448369    0.10950557   -1.75447276       9
Cr     1.75167175   -1.66303745    0.07687919      10
Ni    -1.76697077    1.78050353    0.03777227      11
Ni    -0.00946059    1.81413484    1.80042060      12
Co     1.73799879    0.05399385   -1.70749642      13
Cr    -0.01606697   -1.69004493    1.82729736      14
Cr     1.72150003    0.06870469    1.70553485      15
Co    -0.03026904    1.76912791   -1.74692659      16
Co     1.75674541    1.76015048    0.05635073      17
Ni    -0.02821682   -1.65582837   -1.67319763      18
