          18
Lattice="  24.8920   0.0000   0.0000   0.0000  24.8920   0.0000   0.0000   0.0000  24.8920 " ConfE="      -5948.5969" DelE="          0.0000"
Cr    -3.45406197    0.00494396    0.00642745       1
Cr     0.06846130    0.02317219   -3.46639472       2
Cr     3.58723304   -0.03596820    0.03750487       3
Ni     0.04993039   -0.01248012    3.60176032       4
Ni     0.03518495    3.52424391    0.04743936       5
Ni     0.02208233   -3.57096070    0.03585947       6
Cr    -1.71087297    1.60903172   -0.01323731       7
Cr    -1.71837718   -1.66462732   -0.00241986       8
Cr     0.05708236    1.71052697   -1.70157632       9
Ni     0.00553095   -1.76304530   -1.74957290      10
Ni    -1.71598599   -0.02840246    1.85459350      11
Co     1.82507434    0.00501500   -1.71825340      12
Cr     1.84697064   -0.04001470    1.79306930      13
Co     0.09325307    1.73998931    1.80283817      14
Co     0.02226536   -1.79218761    1.80185720      15
Co     1.82663261    1.74031672    0.03129084      16
Ni     1.80212447   -1.80292063    0.04114683      17
Co     0.00000000    0.00000000    0.00000000      18
          18
Lattice="  24.8920   0.0000   0.0000   0.0000  24.8920   0.0000   0.0000   0.0000  24.8920 " ConfE="      -5948.1517" DelE="          0.4452"
Cr    -3.37666443    0.01494330   -0.03063395       1
Cr     0.03333155    0.01737166   -3.37701925       2
Cr     3.59577564   -0.04116006    0.02654017       3
Ni     0.03290270   -0.00998736    3.58934866       4
Ni     0.04297578    3.56742387    0.05116181       5
Ni     0.04264886   -3.62909692    0.04706806       6
Cr    -1.83240191    1.85891810    0.07668497       7
Cr    -1.74991066   -1.86533865    0.06732103       8
Cr     0.10238608    1.84480792   -1.75112605       9
Ni     0.03736350   -1.88685633   -1.76413629      10
Ni    -1.69830813   -0.02449923    1.78395977      11
Co     1.74213724    0.00419960   -1.67703624      12
Cr     1.78451423   -0.02011008    1.72096148      13
Co     0.07245446    1.70843208    1.72921924      14
Co     0.00860603   -1.78772135    1.76282001      15
Co     1.80254317    1.73200941    0.02060953      16
Ni     1.77856414   -1.80358998    0.03784900      17
Co    -0.67720330    0.04626640   -0.61030693      18
          18
Lattice="  24.8920   0.0000   0.0000   0.0000  24.8920   0.0000   0.0000   0.0000  24.8920 " ConfE="      -5948.7825" DelE="         -0.1856"
Cr    -3.50581335    0.00441792    0.05404906       1
Cr     0.10185674    0.01023105   -3.51854679       2
Cr     3.60997930   -0.03589908    0.03978688       3
Ni     0.05160030   -0.01371566    3.61361004       4
Ni     0.04270912    3.54348130    0.05291378       5
Ni     0.03913242   -3.59575870    0.05053344       6
Cr    -1.66810668    1.61328393    0.03381441       7
Cr    -1.68295446   -1.68915557    0.06917554       8
Cr     0.08123712    1.69326854   -1.66896468       9
Ni     0.03069029   -1.76626934   -1.70506029      10
Ni    -1.68752238   -0.02515690    1.81807044      11
Co     1.76395805    0.01639970   -1.69122370      12
Cr     1.85592880   -0.02797841    1.78567199      13
Co     0.10302041    1.70812621    1.77757475      14
Co     0.02593477   -1.77401988    1.77852658      15
Co     1.78522455    1.70275731    0.03647833      16
Ni     1.79426609   -1.77309708    0.05581596      17
Co    -1.68773958   -0.00123983   -1.68106832      18
