          18
Lattice="  24.8920   0.0000   0.0000   0.0000  24.8920   0.0000   0.0000   0.0000  24.8920 " ConfE="      -5938.9249" DelE="          0.0000"
Co    -0.06944651   -3.41213714    0.12827847       1
Cr    -0.10068016    0.10592682   -3.24531923       2
Co    -0.10141027    3.73203869    0.16129543       3
Ni    -0.09979785    0.13989960    3.72093183       4
Cr    -3.70299135    0.11427580    0.13903480       5
Cr     3.45721255    0.12808390    0.15787461       6
Ni    -1.82919487   -1.65202565    0.12273620       7
Co     1.68404876   -1.63945185    0.12023038       8
Cr    -1.87766586    0.10240710   -1.59948244       9
Co     1.69978188    0.16426820   -1.58691884      10
Co    -0.04748623   -1.62801502    1.90615666      11
Cr    -0.02097207    1.97025455   -1.53787395      12
Cr    -0.04046798    1.92558414    1.88979505      13
Ni    -1.82677419    0.12180893    1.89647165      14
Ni     1.66808029    0.14566389    1.93630566      15
Ni    -1.85208910    1.89149805    0.16282850      16
Cr     1.75728239    2.01135753    0.20971239      17
Cr     0.00000000    0.00000000    0.00000000      18
          18
Lattice="  24.8920   0.0000   0.0000   0.0000  24.8920   0.0000   0.0000   0.0000  24.8920 " ConfE="      -5938.5489" DelE="          0.3760"
Co    -0.06018250   -3.33790998    0.11258475       1
Cr    -0.09570742    0.13072525   -3.30753778       2
Co    -0.10596741    3.72545444    0.15411898       3
Ni    -0.10491163    0.13381146    3.71686477       4
Cr    -3.76087031    0.13747901    0.15902712       5
Cr     3.55038867    0.17558409    0.18867480       6
Ni    -1.97369099   -1.66377518    0.18439503       7
Co     1.84201696   -1.67243554    0.14842069       8
Cr    -1.96257870    0.14555434   -1.58932507       9
Co     1.82721250    0.17736877   -1.61397008      10
Co    -0.05594838   -1.61139477    1.84742818      11
Cr    -0.03884873    1.89796199   -1.51390508      12
Cr    -0.05288610    1.84902496    1.81090177      13
Ni    -1.85053704    0.12022576    1.89017375      14
Ni     1.64232272    0.12252656    1.87177899      15
Ni    -1.87408120    1.87978667    0.16020190      16
Cr     1.66972473    1.90455054    0.15953375      17
Cr    -0.00934573   -0.62218309   -0.55438432      18
          18
Lattice="  24.8920   0.0000   0.0000   0.0000  24.8920   0.0000   0.0000   0.0000  24.8920 " ConfE="      -5939.4181" DelE="         -0.4932"
Co    -0.06993091   -3.45103619    0.16010271       1
Cr    -0.10013705    0.16214929   -3.39313935       2
Co    -0.11030132    3.75181455    0.16052310       3
Ni    -0.10336598    0.14445996    3.73037051       4
Cr    -3.70638142    0.12629879    0.14645283       5
Cr     3.49925555    0.16821209    0.17155206       6
Ni    -1.84534115   -1.61187365    0.17267067       7
Co     1.68737541   -1.60635670    0.15417898       8
Cr    -1.83198429    0.13985342   -1.56609772       9
Co     1.64616556    0.19606707   -1.53152839      10
Co    -0.05067258   -1.60281013    1.86725606      11
Cr    -0.03278362    1.84724391   -1.48914577      12
Cr    -0.04793880    1.90001995    1.85773989      13
Ni    -1.84074126    0.14423645    1.92142780      14
Ni     1.64458465    0.16371889    1.91265891      15
Ni    -1.85686870    1.89877833    0.17884188      16
Cr     1.70547079    1.99665162    0.20849335      17
Cr    -0.02362431   -1.54525178   -1.47465478      18
