          18
Lattice="  24.8920   0.0000   0.0000   0.0000  24.8920   0.0000   0.0000   0.0000  24.8920 " ConfE="      -5929.6169" DelE="          0.0000"
Ni     0.05431909   -0.02028702   -3.46990931       1
Cr     0.02687234    3.48252597    0.00482614       2
Cr     0.07991344   -3.53404991    0.05397877       3
Cr     0.08817189   -0.06467115    3.62565211       4
Cr    -3.51367882    0.03472939    0.00590129       5
Co     3.59902143   -0.01905887    0.06794665       6
Ni     0.00855869    1.73534627    1.86473409       7
Cr    -1.71231438    1.74634042   -0.02167465       8
Co     1.73034474    1.76557073    0.00279554       9
Cr    -1.63186063    0.05532505   -1.68151207      10
Co     1.81189328    0.00576848   -1.69891927      11
Ni    -1.73150208   -1.81755386    0.03053172      12
Ni    -1.76333437   -0.02550194    1.84062506      13
Ni     1.79603260   -0.02417109    1.81420569      14
Cr     0.15598119   -1.77000133   -1.67908209      15
Co     0.05161148   -1.81090247    1.81530607      16
Co     1.84358454   -1.82465781    0.06814785      17
Co     0.00000000    0.00000000    0.00000000      18
          18
Lattice="  24.8920   0.0000   0.0000   0.0000  24.8920   0.0000   0.0000   0.0000  24.8920 " ConfE="      -5929.3162" DelE="          0.3006"
Ni     0.05719019   -0.02330390   -3.45618757       1
Cr     0.01903869    3.42079029   -0.00190383       2
Cr     0.07091637   -3.56041424    0.03865472       3
Cr     0.08865984   -0.06252022    3.63810603       4
Cr    -3.56037357    0.01871133    0.01087247       5
Co     3.64201822   -0.04324808    0.07340792       6
Ni     0.01154634    1.73033948    1.84711167       7
Cr    -1.86803328    1.78690204    0.00527025       8
Co     1.92624048    1.79807351    0.05412807       9
Cr    -1.75789537    0.03860865   -1.74170929      10
Co     1.89705647    0.00025365   -1.71343116      11
Ni    -1.70366543   -1.76596265    0.00881047      12
Ni    -1.74431970   -0.01430380    1.80197175      13
Ni     1.78224612   -0.01812960    1.78706789      14
Cr     0.17635973   -1.72076078   -1.63572560      15
Co     0.06021545   -1.79420813    1.79223443      16
Co     1.82959211   -1.80558571    0.05260005      17
Co    -0.02719884    0.57610178   -0.40730749      18
          18
Lattice="  24.8920   0.0000   0.0000   0.0000  24.8920   0.0000   0.0000   0.0000  24.8920 " ConfE="      -5929.9630" DelE="         -0.3461"
Ni     0.05197410   -0.04617026   -3.50637836       1
Cr     0.01958376    3.54975828    0.01874769       2
Cr     0.07029933   -3.57626443    0.04765995       3
Cr     0.08904225   -0.06440291    3.63781875       4
Cr    -3.55752579    0.03243456    0.01339038       5
Co     3.62258630   -0.03748400    0.07675835       6
Ni     0.00840943    1.71811575    1.80964100       7
Cr    -1.72549432    1.73263181   -0.01403777       8
Co     1.76425513    1.73417602    0.05836396       9
Cr    -1.63640080    0.00260848   -1.64775032      10
Co     1.80426348   -0.02600800   -1.66577009      11
Ni    -1.69916224   -1.79538243    0.02802754      12
Ni    -1.73324972   -0.02431100    1.79664241      13
Ni     1.77793502   -0.03617143    1.80152277      14
Cr     0.18284794   -1.69923136   -1.61194773      15
Co     0.06751706   -1.81311815    1.80655196      16
Co     1.83376619   -1.83034549    0.07743789      17
Co     0.03132095    1.71805569   -1.67650813      18
