          18
Lattice="  24.8920   0.0000   0.0000   0.0000  24.8920   0.0000   0.0000   0.0000  24.8920 " ConfE="      -5949.8902" DelE="          0.0000"
Ni     0.01812617   -3.46107385    0.05851489       1
Ni    -3.56181072    0.02350792    0.01289760       2
Cr    -0.04093620   -0.01425394    3.57497888       3
Co     3.56559783    0.03050354    0.01466798       4
Cr     0.01625638    0.07011094   -3.51073840       5
Cr     0.02382748    3.61172127    0.05341171       6
Ni     1.75360090    0.00380302    1.79309892       7
Ni    -1.72898423    0.00031966    1.76851262       8
Cr     1.79477871   -1.73978308    0.01360553       9
Cr    -1.74875792   -1.74172137    0.03066020      10
Ni    -1.79536323    0.03867056   -1.75876946      11
Cr    -0.00294750   -1.70930238   -1.77151111      12
Co     1.74558961    1.79276869    0.02694069      13
Co     1.79200301    0.03704554   -1.74066697      14
Cr     0.05129168    1.81261058   -1.76683586      15
Cr     0.03220791    1.82218627    1.78705946      16
Cr    -1.74514999    1.81433331   -0.00478914      17
Co     0.00000000    0.00000000    0.00000000      18
          18
Lattice="  24.8920   0.0000   0.0000   0.0000  24.8920   0.0000   0.0000   0.0000  24.8920 " ConfE="      -5948.3904" DelE="          1.4998"
Ni     0.01375139   -3.42022407    0.02353115       1
Ni    -3.65028755    0.04385874    0.00939938       2
Cr    -0.01559028   -0.03859658    3.49138153       3
Co     3.67599168    0.04613668    0.00183870       4
Cr    -0.00032330    0.13414309   -3.46661802       5
Cr     0.02483535    3.52949969    0.05069353       6
Ni     1.93888103    0.07998491    1.78481925       7
Ni    -1.88750292    0.05977851    1.79502850       8
Cr     1.94677585   -1.66838079   -0.12677169       9
Cr    -1.88965550   -1.67093881   -0.04904180      10
Ni    -1.92375252    0.04666099   -1.79043985      11
Cr    -0.02687954   -1.61976381   -1.71326592      12
Co     1.90386487    1.81177152    0.04716193      13
Co     1.93468100    0.05343046   -1.76963211      14
Cr     0.05082764    0.85525167   -0.82237808      15
Cr     0.03577543    1.69805604    1.76044316      16
Cr    -1.85370255    1.79261993    0.02171300      17
Co     0.04104764   -1.05204123    0.96495698      18
          18
Lattice="  24.8920   0.0000   0.0000   0.0000  24.8920   0.0000   0.0000   0.0000  24.8920 " ConfE="      -5949.2932" DelE="          0.5970"
Ni     0.01251816   -3.50363520    0.01840758       1
Ni    -3.56487146    0.04519726    0.00259254       2
Cr    -0.02225445    0.01945443    3.60391873       3
Co     3.55263533    0.04738174   -0.00640371       4
Cr     0.00486879    0.15069742   -3.42424052       5
Cr     0.03768652    3.55915754   -0.00498199       6
Ni     1.79058457    0.05098425    1.77568394       7
Ni    -1.74526922    0.05286183    1.74300500       8
Cr     1.82989389   -1.73062730   -0.01499481       9
Cr    -1.78854854   -1.74162387    0.01019658      10
Ni    -1.79133090    0.07719539   -1.75902821      11
Cr    -0.01882881   -1.73801305   -1.76749431      12
Co     1.70518597    1.81325663   -0.02696403      13
Co     1.76792844    0.06551845   -1.75483582      14
Cr     0.03697388    0.08775298   -0.11564369      15
Cr     0.03519766    1.81680562    1.80963978      16
Cr    -1.72163828    1.84422231   -0.03558927      17
Co     0.00626366   -1.69950311    1.75653236      18
