          18
Lattice="  24.8920   0.0000   0.0000   0.0000  24.8920   0.0000   0.0000   0.0000  24.8920 " ConfE="      -5923.9971" DelE="          0.0000"
Cr    -3.17159932    0.12174654   -0.04245756       1
Co     0.08258740    3.37676844    0.01853733       2
Ni     3.69782891   -0.09775553   -0.01542425       3
Ni     0.14111611   -3.65719215   -0.02660529       4
Ni     0.13258897   -0.08347902   -3.58205452       5
Ni     0.14591933   -0.07827898    3.52436026       6
Cr    -1.61420269   -0.08937907   -1.81838310       7
Ni    -1.61574114   -0.06223698    1.77932828       8
Co     0.00682645    1.58031470   -1.69247824       9
Cr     0.10394901    1.72377865    1.72068493      10
Ni    -1.63194729   -1.88897526   -0.03760085      11
Ni     1.89922661    1.65698929   -0.02368579      12
Cr     1.94341949   -1.93794989    0.03896598      13
Ni     0.15816890   -1.88221556   -1.78405358      14
Co     0.13934346   -1.86541864    1.73496013      15
Ni     1.88604138   -0.12131527   -1.75930069      16
Ni     1.90067817   -0.08237159    1.74301910      17
Cr     0.00000000    0.00000000    0.00000000      18
          18
Lattice="  24.8920   0.0000   0.0000   0.0000  24.8920   0.0000   0.0000   0.0000  24.8920 " ConfE="      -5923.3715" DelE="          0.6256"
Cr    -3.30135525    0.01082729   -0.02646558       1
Co     0.07198828    3.34900207   -0.00350550       2
Ni     3.69106834   -0.08992019   -0.01363884       3
Ni     0.13056007   -3.65502417   -0.02875278       4
Ni     0.13583541   -0.08880965   -3.63223543       5
Ni     0.14350649   -0.08648908    3.55510500       6
Cr    -1.66118453   -0.15368090   -1.93451317       7
Ni    -1.63477638   -0.10557933    1.84329070       8
Co     0.11494542    1.68003522   -1.91851898       9
Cr     0.12614627    1.73529431    1.83695006      10
Ni    -1.60467614   -1.82017771   -0.03872391      11
Ni     1.83771835    1.63964082   -0.02980350      12
Cr     1.86783423   -1.87604359    0.04363716      13
Ni     0.14135628   -1.85311018   -1.78441926      14
Co     0.14851625   -1.83976170    1.71513935      15
Ni     1.83972192   -0.11131961   -1.74861296      16
Ni     1.86929625   -0.06951931    1.73589591      17
Cr    -0.58447748    0.68133472   -0.08824703      18
          18
Lattice="  24.8920   0.0000   0.0000   0.0000  24.8920   0.0000   0.0000   0.0000  24.8920 " ConfE="      -5924.1499" DelE="         -0.1528"
Cr    -3.39961446   -0.11156971   -0.04821676       1
Co     0.10950703    3.46493947    0.00268488       2
Ni     3.70693912   -0.10170717   -0.01258459       3
Ni     0.14780754   -3.67645148   -0.03269605       4
Ni     0.13408615   -0.09094330   -3.59801162       5
Ni     0.14834091   -0.10354857    3.53697384       6
Cr    -1.60279252   -0.10636139   -1.76910879       7
Ni    -1.58909411   -0.09851786    1.72657812       8
Co     0.03174977    1.54957414   -1.68563409       9
Cr     0.12482113    1.65805964    1.72437365      10
Ni    -1.58589576   -1.85259659   -0.04332629      11
Ni     1.84261271    1.63024290   -0.01371001      12
Cr     1.92088654   -1.92780813    0.04000273      13
Ni     0.16614724   -1.87612215   -1.78102362      14
Co     0.16496946   -1.87638509    1.72268487      15
Ni     1.89098075   -0.14535936   -1.74930849      16
Ni     1.90195075   -0.10542769    1.73736660      17
Cr    -1.60067110    1.66047554   -0.02568158      18
