          18
Lattice="  24.8920   0.0000   0.0000   0.0000  24.8920   0.0000   0.0000   0.0000  24.8920 " ConfE="      -5943.0413" DelE="          0.0000"
Cr    -0.07848367   -3.47752491    0.05224704       1
Co     3.44123830    0.00682724   -0.00448829       2
Ni    -0.06179406    3.59781611    0.07183069       3
Co    -3.64534593    0.06740027    0.06022158       4
Co    -0.05907529    0.05663769   -3.49193763       5
Co    -0.04484045    0.04615862    3.63431386       6
Ni    -0.08019495   -1.73408931   -1.70718373       7
Ni    -0.04027113   -1.73126766    1.78426307       8
Cr     1.76320099   -0.08521996   -1.69414898       9
Ni     1.72019467    0.00539206    1.79533125      10
Ni    -1.87882136   -1.73102909    0.03857975      11
Cr     1.75539580    1.82059258    0.07279177      12
Ni    -1.82872407    1.78984274    0.04314043      13
Co    -1.86903584    0.06664247   -1.75599381      14
Ni    -1.84896717    0.01872010    1.81845208      15
Ni    -0.02821879    1.80198070   -1.71009195      16
Ni    -0.05541050    1.78161223    1.81749067      17
Co     0.00000000    0.00000000    0.00000000      18
          18
Lattice="  24.8920   0.0000   0.0000   0.0000  24.8920   0.0000   0.0000   0.0000  24.8920 " ConfE="      -5942.6507" DelE="          0.3907"
Cr    -0.02735891   -3.38019219    0.03694588       1
Co     3.36869086   -0.00382919    0.01196554       2
Ni    -0.04909334    3.58417277    0.07022915       3
Co    -3.63702208    0.06110405    0.05661481       4
Co    -0.05460731    0.07594114   -3.54652632       5
Co    -0.05483880    0.06695609    3.69371572       6
Ni    -0.13326980   -1.74684834   -1.87334979       7
Ni    -0.05032140   -1.70982928    1.89253244       8
Cr     1.84335715   -0.08442662   -1.88898043       9
Ni     1.75751631    0.05272040    1.95856279      10
Ni    -1.81625389   -1.70065244    0.01979132      11
Cr     1.76895066    1.78654999    0.10884717      12
Ni    -1.78089375    1.74019820    0.03829214      13
Co    -1.87237565    0.06650999   -1.78483647      14
Ni    -1.82969377    0.01072766    1.81889383      15
Ni     0.01800921    1.71748008   -1.66830751      16
Ni    -0.03858852    1.74382238    1.80688166      17
Co     0.70480063   -0.53294104   -0.06348998      18
          18
Lattice="  24.8920   0.0000   0.0000   0.0000  24.8920   0.0000   0.0000   0.0000  24.8920 " ConfE="      -5943.6222" DelE="         -0.5809"
Cr    -0.11300205   -3.50508502    0.04366052       1
Co     3.51437137    0.03595680    0.00341505       2
Ni    -0.06023697    3.60423350    0.07019291       3
Co    -3.66256761    0.06934079    0.06565700       4
Co    -0.07240943    0.06906008   -3.51416369       5
Co    -0.04932756    0.05103920    3.64514635       6
Ni    -0.11127273   -1.67274097   -1.69437903       7
Ni    -0.06918285   -1.69935814    1.77453355       8
Cr     1.73576573   -0.01766930   -1.71375977       9
Ni     1.70219893    0.02969473    1.78710653      10
Ni    -1.85885433   -1.70730084    0.03955611      11
Cr     1.74203994    1.76488979    0.05901039      12
Ni    -1.81817892    1.76952131    0.04603721      13
Co    -1.88615321    0.07576063   -1.75646044      14
Ni    -1.85343122    0.02467763    1.81549530      15
Ni    -0.03714359    1.76760475   -1.67285556      16
Ni    -0.05718067    1.76500770    1.79642799      17
Co     1.69767785   -1.70798021   -0.01094983      18
