          18
Lattice="  24.8920   0.0000   0.0000   0.0000  24.8920   0.0000   0.0000   0.0000  24.8920 " ConfE="      -5934.5539" DelE="          0.0000"
Cr     0.13851471    0.02397155   -3.51613698       1
Ni     3.48268689    0.06240410   -0.01519379       2
Co    -0.00855045    0.06307580    3.57662204       3
Cr    -3.58998943    0.01759179    0.00942075       4
Co    -0.00355375   -3.47679342    0.03513586       5
Co    -0.03199661    3.60926312   -0.02373110       6
Cr     0.06148095   -1.69600255   -1.80953261       7
Ni     0.00962576    1.78136253   -1.75565985       8
Cr     1.77853723   -1.73090508   -0.05428681       9
Ni     1.74079350    1.81600653    0.00330877      10
Co    -1.81660602    0.00486555   -1.79992668      11
Ni     1.71074608    0.03026330    1.79217640      12
Ni    -1.80673519    0.06370368    1.80232845      13
Ni    -1.79376323   -1.73092124    0.01065979      14
Ni    -1.80320392    1.80323052    0.00166989      15
Cr    -0.05499241   -1.79016675    1.86018894      16
Co    -0.04965631    1.86302071    1.81205517      17
Ni     0.00000000    0.00000000    0.00000000      18
          18
Lattice="  24.8920   0.0000   0.0000   0.0000  24.8920   0.0000   0.0000   0.0000  24.8920 " ConfE="      -5934.0952" DelE="          0.4587"
Cr     0.21424224    0.02841586   -3.43636713       1
Ni     3.45067160    0.07067156   -0.02820264       2
Co     0.00333798    0.07021036    3.57225857       3
Cr    -3.60243763    0.01929993   -0.01241269       4
Co    -0.00503716   -3.50139283    0.03513727       5
Co    -0.05526356    3.65361048   -0.01761236       6
Cr    -0.03763896   -1.84553311   -1.91062020       7
Ni    -0.02395236    1.90140331   -1.77368286       8
Cr     1.85115252   -1.90093450    0.05865734       9
Ni     1.75570798    1.94695146    0.02580141      10
Co    -1.77169383    0.01465710   -1.79886146      11
Ni     1.68464522    0.04998999    1.73302522      12
Ni    -1.77159020    0.06408308    1.75635431      13
Ni    -1.74442226   -1.70533977   -0.01008604      14
Ni    -1.80476562    1.80869611   -0.01361717      15
Cr    -0.02621752   -1.72086994    1.77245854      16
Co    -0.05231749    1.85692845    1.77663859      17
Ni     0.62420177   -0.06766958   -0.60138842      18
          18
Lattice="  24.8920   0.0000   0.0000   0.0000  24.8920   0.0000   0.0000   0.0000  24.8920 " ConfE="      -5934.8571" DelE="         -0.3032"
Cr     0.06043880    0.01885069   -3.58132282       1
Ni     3.52161303    0.05541701    0.01814691       2
Co    -0.00690279    0.06643029    3.59514128       3
Cr    -3.59764440    0.02219603    0.02998933       4
Co    -0.01734770   -3.51156866    0.04407982       5
Co    -0.04557086    3.63647853   -0.01691441       6
Cr     0.00721079   -1.69262851   -1.75545582       7
Ni    -0.02237024    1.78878030   -1.73496599       8
Cr     1.68963820   -1.73251570    0.01576908       9
Ni     1.70498779    1.82723476    0.02871980      10
Co    -1.77494984    0.00494035   -1.77435614      11
Ni     1.65902403    0.03333665    1.73475364      12
Ni    -1.77686653    0.06005996    1.79602186      13
Ni    -1.75400534   -1.69761131    0.02241080      14
Ni    -1.77875105    1.78191212    0.01412148      15
Cr    -0.05676957   -1.75992155    1.81974706      16
Co    -0.06012051    1.86106073    1.81444657      17
Ni     1.74450527    0.04586737   -1.73155180      18
