          18
Lattice="  24.8920   0.0000   0.0000   0.0000  24.8920   0.0000   0.0000   0.0000  24.8920 " ConfE="      -5948.5305" DelE="          0.0000"
Cr     0.00189492   -3.46918377    0.09089710       1
Co    -0.02381774   -0.05386631    3.52348109       2
Cr    -0.06357961    3.55800752   -0.02942759       3
Ni     0.00947298   -0.01126323   -3.58707878       4
Ni    -3.53927505   -0.01901067   -0.03979282       5
Co     3.54764969   -0.03794713   -0.04119595       6
Cr    -1.67749003   -1.75353355    0.05303636       7
Cr     1.69509417   -1.76908303    0.05403090       8
Co    -1.76224685   -0.08853959    1.75576329       9
Co     1.80192324   -0.05599067    1.71843489      10
Co    -0.00343109   -1.77034460   -1.81915973      11
Ni    -0.00201870    1.78333392    1.74645230      12
Ni     0.00020078    1.75898880   -1.80782073      13
Co    -1.78805655   -0.04711895   -1.80558065      14
Cr     1.78513171   -0.05127228   -1.78196397      15
Co    -1.79218554    1.78146933   -0.01185745      16
Ni     1.77012427    1.77069818   -0.02512812      17
Ni     0.00000000    0.00000000    0.00000000      18
          18
Lattice="  24.8920   0.0000   0.0000   0.0000  24.8920   0.0000   0.0000   0.0000  24.8920 " ConfE="      -5947.6052" DelE="          0.9253"
Cr     0.01318903   -3.41143631    0.09931313       1
Co    -0.01787861   -0.06762639    3.47577452       2
Cr    -0.04182443    3.48926696   -0.04133380       3
Ni     0.00543992   -0.01036207   -3.53516536       4
Ni    -3.68549518    0.00192418   -0.03831290       5
Co     3.63993225   -0.02098741   -0.05559243       6
Cr    -1.94406097   -1.73954086   -0.09568604       7
Cr     2.01059210   -1.77387005   -0.06336897       8
Co    -1.93985268   -0.05191927    1.77498530       9
Co     1.98450659    0.00397860    1.75479227      10
Co     0.00616583   -1.74045006   -1.73287067      11
Ni     0.00416742    1.66595538    1.68080182      12
Ni    -0.01629108    1.11488563   -1.23550702      13
Co    -1.96198290   -0.12846947   -1.81584076      14
Cr     1.90185117   -0.08477532   -1.78289157      15
Co    -1.91702185    1.74833202    0.03852663      16
Ni     1.87907965    1.76134872    0.01380615      17
Ni     0.02992452   -0.81604343    0.69393836      18
          18
Lattice="  24.8920   0.0000   0.0000   0.0000  24.8920   0.0000   0.0000   0.0000  24.8920 " ConfE="      -5948.8696" DelE="         -0.3391"
Cr     0.00721050   -3.52058042   -0.02742506       1
Co    -0.02170639   -0.03918773    3.55007196       2
Cr    -0.09125211    3.51379950   -0.05239906       3
Ni     0.00406908    0.00839550   -3.56012697       4
Ni    -3.55259948    0.00243817   -0.05136868       5
Co     3.55143800   -0.01893085   -0.05609243       6
Cr    -1.75829944   -1.73308607   -0.06125681       7
Cr     1.78693302   -1.74722253   -0.04576459       8
Co    -1.79541627   -0.03965114    1.74442437       9
Co     1.82164941   -0.02281176    1.71892214      10
Co    -0.00383593   -1.79374474   -1.80755771      11
Ni     0.00201316    1.75493625    1.76134361      12
Ni     0.00387452    0.03773721   -0.07087967      13
Co    -1.77408090   -0.01904319   -1.81206678      14
Cr     1.76523086    0.00661000   -1.81837697      15
Co    -1.75732634    1.79476125   -0.04441871      16
Ni     1.74075847    1.76978987   -0.05319828      17
Ni     0.00483525   -1.77988517    1.72628751      18
