          18
Lattice="  24.8920   0.0000   0.0000   0.0000  24.8920   0.0000   0.0000   0.0000  24.8920 " ConfE="      -5946.5368" DelE="          0.0000"
Ni     0.01200223    0.01674851   -3.48192477       1
Co    -0.02844680    3.49697941    0.01581636       2
Co     0.02665002   -0.02763653    3.59829977       3
Ni    -0.00745051   -3.56781265    0.03283667       4
Co     3.54226100   -0.04528624    0.01333249       5
Ni    -3.53093004   -0.00157912    0.01659896       6
Cr     1.80330538   -0.00073069   -1.68076192       7
Ni    -1.72847966    0.02175131   -1.73915600       8
Co     1.75782982    1.76077613    0.04375916       9
Cr    -1.72913898    1.80251554   -0.03886536      10
Co     0.06109076   -1.82145069   -1.74861052      11
Ni    -0.03361766    1.71982899    1.82439440      12
Cr     0.03878372   -1.78559949    1.81639081      13
Co     1.77944799   -1.81216301    0.02153791      14
Co    -1.78069791   -1.80653738    0.05981482      15
Co     1.77781969   -0.02302072    1.80410309      16
Co    -1.80514580   -0.01717501    1.79794270      17
Ni     0.00000000    0.00000000    0.00000000      18
          18
Lattice="  24.8920   0.0000   0.0000   0.0000  24.8920   0.0000   0.0000   0.0000  24.8920 " ConfE="      -5945.3159" DelE="          1.2209"
Ni    -0.00452100    0.02868743   -3.42692525       1
Co    -0.02514116    3.47265396    0.01057985       2
Co     0.03266994   -0.03662115    3.52996445       3
Ni    -0.00611793   -3.49208441    0.05632390       4
Co     3.62018375   -0.04646695    0.02275015       5
Ni    -3.62942643   -0.03458022    0.03836253       6
Cr     1.91002576   -0.10120234   -1.65005847       7
Ni    -1.92135799   -0.06422190   -1.75077488       8
Co     1.93641058    1.78611284    0.12585104       9
Cr    -1.97121833    1.78554683    0.06749081      10
Co     0.04274391   -1.71541307   -1.65754374      11
Ni    -0.03941712    1.64825178    1.70141538      12
Cr    -0.03922976   -0.97521448    1.01257020      13
Co     1.86287051   -1.80703776    0.02137889      14
Co    -1.87249482   -1.79765821    0.02717221      15
Co     1.85971978   -0.00327621    1.79815270      16
Co    -1.90792186    0.02356069    1.80216967      17
Ni    -0.01580447    0.94033679   -0.88511534      18
          18
Lattice="  24.8920   0.0000   0.0000   0.0000  24.8920   0.0000   0.0000   0.0000  24.8920 " ConfE="      -5946.3224" DelE="          0.2143"
Ni     0.00230716   -0.01632236   -3.51241211       1
Co    -0.01481988    3.53939808    0.05106079       2
Co     0.04391902   -0.03561113    3.58368972       3
Ni    -0.01217507   -3.53630217    0.06259518       4
Co     3.53194198   -0.06123626    0.02376181       5
Ni    -3.54067518   -0.02322019    0.03684186       6
Cr     1.77118745   -0.04261678   -1.64096271       7
Ni    -1.75193244   -0.03119835   -1.71767399       8
Co     1.75831976    1.72904353    0.07816472       9
Cr    -1.77052161    1.75215775    0.07229875      10
Co     0.04964364   -1.79599142   -1.75303253      11
Ni    -0.02572740    1.74181560    1.82157677      12
Cr    -0.00317583   -0.14646758    0.15612222      13
Co     1.76027399   -1.82326580    0.05569164      14
Co    -1.76222218   -1.79234386    0.08340413      15
Co     1.73860610   -0.06705210    1.80234043      16
Co    -1.78109625   -0.03365841    1.80213860      17
Ni    -0.01531865    1.72670241   -1.69548855      18
