          18
Lattice="  24.8920   0.0000   0.0000   0.0000  24.8920   0.0000   0.0000   0.0000  24.8920 " ConfE="      -5940.8173" DelE="          0.0000"
Ni     0.01480281   -3.48987448   -0.01966662       1
Co     3.52456247   -0.05329177    0.01786571       2
Ni     0.02154661    3.55849292   -0.00711076       3
Co    -3.57820254    0.03740273    0.01460872       4
Ni     0.02058314    0.04175385    3.56505341       5
Co     0.01885632    0.05353060   -3.56691138       6
Co     0.04867267   -1.72124161    1.77972481       7
Ni    -0.01554806   -1.73828916   -1.79376124       8
Cr     1.78814660   -0.02144063    1.76272680       9
Ni     1.77386290   -0.01872234   -1.73891948      10
Ni    -1.79300863   -1.73298761    0.00340516      11
Cr     1.76498897    1.77610047    0.03361302      12
Ni    -1.76074497    1.78143250   -0.00512552      13
Cr    -1.76876529   -0.01483790    1.83050800      14
Cr    -1.81775909    0.00393572   -1.80137729      15
Co     0.00379389    1.78683744    1.79342231      16
Co     0.02287187    1.79309234   -1.76469507      17
Ni     0.00000000    0.00000000    0.00000000      18
          18
Lattice="  24.8920   0.0000   0.0000   0.0000  24.8920   0.0000   0.0000   0.0000  24.8920 " ConfE="      -5940.0155" DelE="          0.8019"
Ni     0.04435923   -3.46001046   -0.02430907       1
Co     3.53297046   -0.01828020    0.00728601       2
Ni     0.02510020    3.54629312   -0.00777265       3
Co    -3.57587417    0.02462847    0.01311814       4
Ni     0.00821516    0.06959302    3.64150147       5
Co     0.01573887    0.06679767   -3.61904164       6
Co    -0.05618109   -1.74090012    1.95814216       7
Ni    -0.02589470   -1.74311208   -1.91249626       8
Cr     1.81143303    0.07975365    1.93431277       9
Ni     1.82356725    0.03066857   -1.91058771      10
Ni    -1.67022926   -1.67593868    0.01131835      11
Cr     1.66583428    1.65189523    0.04206458      12
Ni    -1.72404360    1.72831686   -0.00871790      13
Cr    -1.71275069   -0.02820058    1.81205324      14
Cr    -1.78301222   -0.01154749   -1.78450281      15
Co     0.01271627    1.70821058    1.75467157      16
Co     0.04493493    1.72388813   -1.72162377      17
Ni     1.08247238   -1.00071727    0.05217129      18
          18
Lattice="  24.8920   0.0000   0.0000   0.0000  24.8920   0.0000   0.0000   0.0000  24.8920 " ConfE="      -5940.5715" DelE="          0.2458"
Ni    -0.00275619   -3.52371756   -0.01207513       1
Co     3.59978907    0.03664296    0.00340730       2
Ni     0.01602961    3.57099020   -0.00944518       3
Co    -3.59584324    0.03515304    0.01353688       4
Ni     0.01883843    0.04912205    3.59098199       5
Co     0.01675904    0.05838868   -3.58657397       6
Co     0.01728101   -1.67906039    1.77640245       7
Ni    -0.02177733   -1.71370399   -1.78335242       8
Cr     1.74160736    0.03701824    1.76214305       9
Ni     1.75622599    0.01509040   -1.74720110      10
Ni    -1.73200983   -1.68697545    0.00807611      11
Cr     1.69254016    1.71455555    0.04426624      12
Ni    -1.73220623    1.73664774   -0.00675335      13
Cr    -1.73146858   -0.02332063    1.80407977      14
Cr    -1.80313869    0.00243628   -1.77791755      15
Co     0.01413794    1.73093068    1.74246639      16
Co     0.02430606    1.75263008   -1.72556632      17
Ni     1.77614535   -1.71058840   -0.00089156      18
