          18
Lattice="  24.8920   0.0000   0.0000   0.0000  24.8920   0.0000   0.0000   0.0000  24.8920 " ConfE="      -5938.1609" DelE="          0.0000"
Ni    -3.34317770    0.01991838    0.01074711       1
Co     0.10632122   -3.48584100    0.05536109       2
Co     0.12420652    0.04565556   -3.55895070       3
Co     0.13723794    0.02193741    3.61157314       4
Co     0.16335329    3.60673205   -0.01749894       5
Co     3.73450851    0.08456940   -0.01149194       6
Ni     0.09562205   -1.73182832   -1.72749661       7
Co     0.06877749   -1.73507236    1.76060965       8
Cr    -1.56910821    0.07615815   -1.74105144       9
Cr    -1.57154634   -0.01287178    1.74500004      10
Ni    -1.64094111    1.86328965    0.01917724      11
Ni     1.87541565    0.04094904    1.77987416      12
Ni     0.12211819    1.79912936    1.79232680      13
Cr     1.91133840   -1.67570818    0.00820991      14
Co     1.85627226    0.05170284   -1.74187919      15
Co     0.08720017    1.81158815   -1.78427061      16
Co     1.87459313    1.80695157    0.00261017      17
Co     0.00000000    0.00000000    0.00000000      18
          18
Lattice="  24.8920   0.0000   0.0000   0.0000  24.8920   0.0000   0.0000   0.0000  24.8920 " ConfE="      -5937.8407" DelE="          0.3202"
Ni    -3.31203921    0.01415380    0.00588495       1
Co     0.09334819   -3.44117895    0.04140591       2
Co     0.14143864    0.05548999   -3.61130133       3
Co     0.14114317    0.02803356    3.65084726       4
Co     0.16194972    3.60027080   -0.02122770       5
Co     3.73247488    0.07748492   -0.00938128       6
Ni     0.13413331   -1.74833574   -1.85173995       7
Co     0.13263626   -1.79631378    1.88777951       8
Cr    -1.57927661    0.12969936   -1.90841075       9
Cr    -1.63090092    0.04498335    1.93167695      10
Ni    -1.60981604    1.80018956    0.01644969      11
Ni     1.85441714    0.02941743    1.77624542      12
Ni     0.11500812    1.75270374    1.78230880      13
Cr     1.83658790   -1.62862752   -0.00178213      14
Co     1.84288360    0.04792112   -1.73058611      15
Co     0.08989089    1.76455338   -1.76613298      16
Co     1.86668300    1.79041058    0.00726300      17
Co    -0.64778420   -0.57626411    0.03560824      18
          18
Lattice="  24.8920   0.0000   0.0000   0.0000  24.8920   0.0000   0.0000   0.0000  24.8920 " ConfE="      -5938.2800" DelE="         -0.1192"
Ni    -3.41879116    0.05054152    0.00765109       1
Co     0.13837537   -3.50760567    0.04751113       2
Co     0.14593187    0.04485880   -3.58185468       3
Co     0.14969888    0.02419888    3.63267385       4
Co     0.15811091    3.60773570   -0.01916306       5
Co     3.75105290    0.08603684   -0.01073907       6
Ni     0.12612141   -1.68847492   -1.71711953       7
Co     0.13474965   -1.71114158    1.77869689       8
Cr    -1.54703905    0.09013773   -1.71784486       9
Cr    -1.55526152   -0.02125542    1.72919831      10
Ni    -1.61061251    1.78839752    0.02273822      11
Ni     1.87764636    0.04346038    1.75991451      12
Ni     0.12604238    1.75050887    1.76471190      13
Cr     1.88443398   -1.65038597    0.00315455      14
Co     1.84677318    0.05881309   -1.70430822      15
Co     0.08501625    1.77809225   -1.77271656      16
Co     1.88129504    1.81323396   -0.00058657      17
Co    -1.57749383   -1.62705732    0.06462570      18
