          18
Lattice="  24.8920   0.0000   0.0000   0.0000  24.8920   0.0000   0.0000   0.0000  24.8920 " ConfE="      -5924.8512" DelE="          0.0000"
Ni     0.00572522   -0.08324277   -3.56351724       1
Cr     3.59491522   -0.10950403   -0.04202024       2
Ni    -3.55061935   -0.09504521   -0.00938904       3
Cr     0.01007854    3.33311069   -0.03891242       4
Ni     0.01007303   -3.67092536   -0.00645068       5
Co    -0.00584579   -0.04346871    3.44047889       6
Ni     1.78794655   -0.08752260   -1.78363719       7
Ni     0.04318179   -1.87171951    1.75120651       8
Cr     1.77212662   -0.02721040    1.70648110       9
Co     1.74348695    1.67026406    0.04147079      10
Co     0.02164694    1.66779423   -1.78116232      11
Ni    -1.78316114    1.67238334   -0.00933745      12
Cr    -1.70512202   -0.04074096    1.73640519      13
Cr    -0.01200889   -1.83385504   -1.72663870      14
Co     1.78567432   -1.85696761   -0.01203007      15
Co    -1.78399220   -0.10393999   -1.78589069      16
Co    -1.75180036   -1.84339590    0.01207497      17
Cr     0.00000000    0.00000000    0.00000000      18
          18
Lattice="  24.8920   0.0000   0.0000   0.0000  24.8920   0.0000   0.0000   0.0000  24.8920 " ConfE="      -5924.1605" DelE="          0.6906"
Ni     0.00649887   -0.06348672   -3.56934627       1
Cr     3.70055907   -0.13071866   -0.10206460       2
Ni    -3.61690843   -0.10428742   -0.03407493       3
Cr     0.01133941    3.34862126   -0.09892118       4
Ni     0.00643266   -3.65832604    0.00092301       5
Co    -0.01393795   -0.04201499    3.42096751       6
Ni     1.77391144   -0.07425814   -1.75500567       7
Ni     0.03790984   -1.81418377    1.74226054       8
Cr     1.96503621   -0.09905515    1.77048386       9
Co     1.89499327    1.66380395   -0.04589289      10
Co     0.02137369    1.65695614   -1.71094487      11
Ni    -1.86872307    1.66297464   -0.06149074      12
Cr    -1.90689343   -0.11167243    1.73958419      13
Cr    -0.04662037   -1.68074606   -1.59387501      14
Co     1.76414556   -1.78733811    0.00673542      15
Co    -1.75944036   -0.10689671   -1.75590510      16
Co    -1.74751415   -1.79157805    0.03523396      17
Cr     0.04567317    0.63972103    0.78644396      18
          18
Lattice="  24.8920   0.0000   0.0000   0.0000  24.8920   0.0000   0.0000   0.0000  24.8920 " ConfE="      -5924.5768" DelE="          0.2743"
Ni     0.00139081   -0.07238062   -3.56886519       1
Cr     3.62888541   -0.11684948   -0.07194151       2
Ni    -3.58092092   -0.10055680   -0.02690962       3
Cr     0.01368110    3.38667638   -0.11234689       4
Ni     0.00905577   -3.67862496   -0.00626666       5
Co     0.02845761   -0.10380092    3.52354694       6
Ni     1.75054152   -0.09882048   -1.75508782       7
Ni     0.05166119   -1.82646428    1.73086589       8
Cr     1.83212068   -0.10287635    1.68005546       9
Co     1.75695586    1.62915603    0.01146189      10
Co     0.02447383    1.66682107   -1.73655661      11
Ni    -1.76013738    1.62986480   -0.02905117      12
Cr    -1.73037102   -0.11778626    1.67952713      13
Cr    -0.05449489   -1.76785058   -1.66748037      14
Co     1.77748474   -1.84923058   -0.01427992      15
Co    -1.75799721   -0.12341210   -1.77477719      16
Co    -1.73663697   -1.82356704    0.00745607      17
Cr     0.06291973    1.57218327    1.66827079      18
