          18
Lattice="  24.8920   0.0000   0.0000   0.0000  24.8920   0.0000   0.0000   0.0000  24.8920 " ConfE="      -5938.4016" DelE="          0.0000"
Ni    -3.53143087    0.00122908   -0.00067176       1
Co     0.06620543   -0.07471533   -3.60817233       2
Cr     0.04284643    3.53738447    0.03213518       3
Ni     3.52584888   -0.02041136   -0.00100392       4
Cr    -0.02653200   -3.61868659   -0.00018247       5
Cr     0.00356003    0.00976266    3.50407510       6
Ni    -1.71446159    0.01932491   -1.80514609       7
Ni    -1.71374531    1.77133698   -0.01583590       8
Ni     1.72641569   -0.00424692   -1.76677979       9
Ni     1.73979345    1.75936189   -0.00828115      10
Ni    -1.76109207   -1.79042092   -0.00624619      11
Ni    -0.00252226   -1.78929874    1.75714825      12
Co    -1.80079263    0.01060237    1.79192341      13
Cr     1.73596058   -1.83569960   -0.03551219      14
Co     1.78017023   -0.01191486    1.79816707      15
Co     0.00817655   -1.87201927   -1.81574048      16
Co     0.01905848    1.76127272    1.85719164      17
Ni     0.00000000    0.00000000    0.00000000      18
          18
Lattice="  24.8920   0.0000   0.0000   0.0000  24.8920   0.0000   0.0000   0.0000  24.8920 " ConfE="      -5937.7168" DelE="          0.6848"
Ni    -3.59230606   -0.02519439    0.01217971       1
Co     0.06597551   -0.06479515   -3.57444108       2
Cr     0.03129549    3.42305471    0.04036958       3
Ni     3.58968607   -0.04829555    0.00912788       4
Cr    -0.02936795   -3.62640438   -0.00882123       5
Cr     0.00598288    0.00301172    3.52099576       6
Ni    -1.85116254   -0.03585200   -1.83567800       7
Ni    -1.91466453    1.79856236    0.04281492       8
Ni     1.87922163   -0.06447202   -1.79941573       9
Ni     1.95052217    1.78681094    0.06302216      10
Ni    -1.75042656   -1.75775878   -0.01532401      11
Ni    -0.00241727   -1.73553604    1.70337626      12
Co    -1.79304575    0.01238702    1.76818898      13
Cr     1.70705902   -1.79040764   -0.03732678      14
Co     1.76707695   -0.01211310    1.76573389      15
Co     0.01745155   -1.82790009   -1.78961697      16
Co     0.01306959    1.73702842    1.77192355      17
Ni     0.01773402    0.80737316   -0.73490621      18
          18
Lattice="  24.8920   0.0000   0.0000   0.0000  24.8920   0.0000   0.0000   0.0000  24.8920 " ConfE="      -5938.4417" DelE="         -0.0400"
Ni    -3.54587373   -0.00663024    0.00659229       1
Co     0.06256110   -0.07502906   -3.62136012       2
Cr     0.04641355    3.56329350    0.06896759       3
Ni     3.53630719   -0.03152793    0.00801457       4
Cr    -0.02956772   -3.64539156    0.00459567       5
Cr     0.00973954    0.02153608    3.50384590       6
Ni    -1.72107815   -0.01508506   -1.77466789       7
Ni    -1.71383786    1.73627428    0.02059087       8
Ni     1.71653612   -0.03500685   -1.72169319       9
Ni     1.73095192    1.72558145    0.02536553      10
Ni    -1.72646670   -1.76340164   -0.00303092      11
Ni     0.00025513   -1.76646599    1.72806403      12
Co    -1.78140307    0.00370460    1.78596528      13
Cr     1.69739472   -1.83335911   -0.03505400      14
Co     1.74844032   -0.02550283    1.77894621      15
Co     0.01600508   -1.85184530   -1.79696966      16
Co     0.01012183    1.72823772    1.82874416      17
Ni    -0.00900469    1.76045046   -1.74320467      18
