          18
Lattice="  24.8920   0.0000   0.0000   0.0000  24.8920   0.0000   0.0000   0.0000  24.8920 " ConfE="      -5922.6169" DelE="          0.0000"
Co     0.01950540   -3.50152633    0.03878074       1
Cr     3.47747118    0.14538653    0.02243995       2
Co    -0.04243007    3.58298017    0.06232028       3
Cr    -3.53035687   -0.01031314    0.03725700       4
Ni    -0.00513654    0.02725327   -3.50486297       5
Ni    -0.00656393    0.03351761    3.57508309       6
Co     0.00369217   -1.76688773   -1.73380955       7
Ni     0.00396416   -1.74782888    1.78793302       8
Co     1.79808723    0.02491868   -1.69842876       9
Ni     1.74411723    0.02920085    1.74185799      10
Cr    -1.68674723   -1.93164795   -0.08348672      11
Cr     1.72831444    1.91946153   -0.07626096      12
Cr    -1.73141451    1.90263017    0.02298531      13
Ni    -1.77955507    0.00891236   -1.72812272      14
Cr    -1.75652964    0.04929340    1.72378366      15
Co    -0.04165702    1.83960792   -1.72152494      16
Co    -0.00396381    1.82440493    1.79730324      17
Ni     0.00000000    0.00000000    0.00000000      18
          18
Lattice="  24.8920   0.0000   0.0000   0.0000  24.8920   0.0000   0.0000   0.0000  24.8920 " ConfE="      -5921.8940" DelE="          0.7228"
Co     0.03622693   -3.46590613    0.03556833       1
Cr     3.43731776   -0.02979032    0.01608449       2
Co    -0.02984743    3.58312025    0.06031337       3
Cr    -3.53632251   -0.01594243    0.02951045       4
Ni    -0.02388410    0.04289061   -3.56968409       5
Ni    -0.02533143    0.03945801    3.65306959       6
Co    -0.05095396   -1.82044744   -1.94230294       7
Ni    -0.04552832   -1.76656663    1.96157571       8
Co     1.80365286    0.07625252   -1.88210752       9
Ni     1.78229730    0.05820969    1.92644367      10
Cr    -1.60622181   -1.83045656   -0.04187717      11
Cr     1.67093346    1.73359791   -0.06584305      12
Cr    -1.60134745    1.81040339    0.01565767      13
Ni    -1.70973558   -0.00448722   -1.69450478      14
Cr    -1.66981217    0.03286355    1.63452207      15
Co    -0.00805989    1.79560463   -1.69719865      16
Co     0.00696947    1.75669428    1.76742760      17
Ni     1.00640115   -1.02791790    0.00375049      18
          18
Lattice="  24.8920   0.0000   0.0000   0.0000  24.8920   0.0000   0.0000   0.0000  24.8920 " ConfE="      -5922.4656" DelE="          0.1513"
Co    -0.01683905   -3.55540082    0.04807930       1
Cr     3.51832009    0.10832750    0.00395819       2
Co    -0.03541892    3.61056400    0.06023079       3
Cr    -3.56268368   -0.01097850    0.03008463       4
Ni    -0.01451094    0.03297087   -3.51640331       5
Ni    -0.02301964    0.03374094    3.59280638       6
Co    -0.03638097   -1.74819962   -1.73187844       7
Ni    -0.03242280   -1.73154623    1.80880339       8
Co     1.76129439    0.06438453   -1.70457583       9
Ni     1.70994730    0.05900493    1.74993507      10
Cr    -1.65145320   -1.85532651   -0.06809182      11
Cr     1.69112054    1.82844106   -0.09711130      12
Cr    -1.65470307    1.87278449    0.02017523      13
Ni    -1.74323217    0.01964073   -1.67828598      14
Cr    -1.70644795    0.05127262    1.61577723      15
Co    -0.03035193    1.81586860   -1.67815963      16
Co    -0.01910159    1.80115609    1.75888069      17
Ni     1.68698839   -1.70182951    0.02323870      18
