          18
Lattice="  24.8920   0.0000   0.0000   0.0000  24.8920   0.0000   0.0000   0.0000  24.8920 " ConfE="      -5939.8651" DelE="          0.0000"
Ni    -3.44969478    0.00480915   -0.02645290       1
Ni     3.64119423    0.01840057   -0.03356834       2
Cr     0.01506926   -0.02721259    3.53828354       3
Co     0.08472673   -3.56191771   -0.05213926       4
Co     0.05769024    3.51682941   -0.06380923       5
Co     0.08135594    0.03491594   -3.58664178       6
Ni    -1.71128236   -1.77379822   -0.04054174       7
Ni     0.01440473   -1.75464293    1.76288576       8
Cr    -1.67200887    1.77762101   -0.04888758       9
Co     0.07286147    1.69505947    1.73858248      10
Co    -1.70223972    0.02616081   -1.87742982      11
Co     0.07359292   -1.77114800   -1.83050126      12
Cr     0.07413444    1.83531236   -1.77023322      13
Cr     1.77295238   -1.73607855   -0.06359391      14
Co     1.82630447    1.73939040   -0.05245359      15
Cr     1.82449047    0.01087913   -1.81179893      16
Cr     1.87776736   -0.03120084    1.76494914      17
Ni     0.00000000    0.00000000    0.00000000      18
          18
Lattice="  24.8920   0.0000   0.0000   0.0000  24.8920   0.0000   0.0000   0.0000  24.8920 " ConfE="      -5939.1878" DelE="          0.6773"
Ni    -3.39882212   -0.01167925   -0.01821422       1
Ni     3.64184370    0.01884434   -0.01803481       2
Cr    -0.00259340   -0.03507414    3.49418986       3
Co     0.09762118   -3.62444359   -0.06619888       4
Co     0.07107616    3.56027236   -0.06974318       5
Co     0.07524482    0.02933062   -3.60294120       6
Ni    -1.71719222   -1.91864798   -0.10157950       7
Ni     0.07644851   -1.91100902    1.77025231       8
Cr    -1.66034516    1.89809458   -0.12169844       9
Co     0.18210122    1.86801107    1.78088325      10
Co    -1.64458059    0.02007847   -1.80086692      11
Co     0.08489331   -1.74874060   -1.78925093      12
Cr     0.08097981    1.80052936   -1.74355345      13
Cr     1.70690720   -1.71023601   -0.04469705      14
Co     1.79233954    1.72727365   -0.05722241      15
Cr     1.75046831    0.00419992   -1.71443920      16
Cr     1.74874179   -0.00170858    1.67019604      17
Ni    -0.92049488    0.01401394    0.94933304      18
          18
Lattice="  24.8920   0.0000   0.0000   0.0000  24.8920   0.0000   0.0000   0.0000  24.8920 " ConfE="      -5939.7335" DelE="          0.1316"
Ni    -3.50189965   -0.00629168   -0.05653239       1
Ni     3.66110041    0.01995308   -0.03135561       2
Cr     0.04593665   -0.02603853    3.57180458       3
Co     0.09274439   -3.58584037   -0.05861284       4
Co     0.06945997    3.53922104   -0.07539112       5
Co     0.08310236    0.03165668   -3.60892900       6
Ni    -1.68064525   -1.76522390   -0.06528023       7
Ni     0.04723359   -1.75866025    1.72486937       8
Cr    -1.60826226    1.72942797   -0.09133988       9
Co     0.10367434    1.66123875    1.65656750      10
Co    -1.64439831    0.03538743   -1.80653891      11
Co     0.10442155   -1.73454411   -1.79705941      12
Cr     0.10303914    1.81049559   -1.76158090      13
Cr     1.73333925   -1.68430991   -0.06427942      14
Co     1.80359532    1.70389163   -0.07537205      15
Cr     1.80089348    0.01041488   -1.77470080      16
Cr     1.82325203   -0.01740559    1.71757766      17
Ni    -1.70558916   -0.00894769    1.69506141      18
