          18
Lattice="  24.8920   0.0000   0.0000   0.0000  24.8920   0.0000   0.0000   0.0000  24.8920 " ConfE="      -5949.6444" DelE="          0.0000"
Ni     0.02164330    0.03714595    3.53444707       1
Ni     3.49002882   -0.03774103    0.01875916       2
Ni    -0.00395428    0.00149074   -3.56838744       3
Cr    -3.54032653   -0.05026281   -0.01239691       4
Ni    -0.01002198    3.55483493   -0.04394215       5
Co     0.00911826   -3.54797939    0.01957473       6
Co     0.00546481    1.75902127    1.80763972       7
Ni     0.01636599   -1.73252590    1.77356706       8
Ni     1.72927223    1.70766042    0.00624026       9
Cr     1.73218354   -1.78181446    0.00966366      10
Co    -1.80895645    0.00702613    1.82100493      11
Cr     1.70944609   -0.08170652   -1.81817686      12
Co    -1.77480039   -0.03137141   -1.80935503      13
Ni    -1.77052419    1.75771276   -0.01337804      14
Ni    -1.76921000   -1.77906008   -0.00359535      15
Co    -0.00312981    1.78378517   -1.79864361      16
Co     0.01205097   -1.78313878   -1.78162129      17
Ni     0.00000000    0.00000000    0.00000000      18
          18
Lattice="  24.8920   0.0000   0.0000   0.0000  24.8920   0.0000   0.0000   0.0000  24.8920 " ConfE="      -5948.9240" DelE="          0.7203"
Ni     0.01938191    0.02326746    3.53588422       1
Ni     3.42235637   -0.03530202    0.01178294       2
Ni     0.00202311   -0.00108046   -3.57954969       3
Cr    -3.54801824   -0.05653453   -0.00177237       4
Ni    -0.02568276    3.59284038   -0.04506924       5
Co    -0.00929307   -3.58301038    0.01238798       6
Co    -0.01719068    1.83362656    1.83745088       7
Ni    -0.03826236   -1.86510649    1.83603607       8
Ni     1.77333825    1.91514484   -0.06798036       9
Cr     1.75767364   -2.01076678   -0.05945774      10
Co    -1.77098644   -0.00597987    1.80981981      11
Cr     1.66712425   -0.04374257   -1.78463597      12
Co    -1.73930707   -0.03709139   -1.76754721      13
Ni    -1.73185565    1.72730720    0.00149677      14
Ni    -1.74741336   -1.77064034    0.00825445      15
Co     0.01765717    1.72204637   -1.75890865      16
Co     0.04134929   -1.74742499   -1.72902817      17
Ni     0.80252802   -0.05595361    0.63073467      18
          18
Lattice="  24.8920   0.0000   0.0000   0.0000  24.8920   0.0000   0.0000   0.0000  24.8920 " ConfE="      -5949.5276" DelE="          0.1167"
Ni    -0.01264747    0.03843312    3.56873422       1
Ni     3.53641769   -0.02436149   -0.00862973       2
Ni    -0.00420507   -0.00284206   -3.58838457       3
Cr    -3.55398860   -0.04706111   -0.01384974       4
Ni    -0.02152795    3.56343723   -0.04820145       5
Co    -0.00414602   -3.57205537    0.02032633       6
Co    -0.04744407    1.76597039    1.79686663       7
Ni    -0.02923884   -1.73759098    1.74567146       8
Ni     1.67608289    1.69339793   -0.02791354       9
Cr     1.69286892   -1.77942838   -0.03416714      10
Co    -1.79380807    0.00846751    1.80939086      11
Cr     1.64723240   -0.06528066   -1.75413079      12
Co    -1.75177537   -0.02823255   -1.78987020      13
Ni    -1.74568868    1.71976996   -0.01317480      14
Ni    -1.75285620   -1.74429287   -0.00858897      15
Co    -0.00939417    1.74894778   -1.78980086      16
Co     0.02752439   -1.73596735   -1.73055354      17
Ni     1.71289370    0.00100381    1.72717722      18
