          18
Lattice="  24.8920   0.0000   0.0000   0.0000  24.8920   0.0000   0.0000   0.0000  24.8920 " ConfE="      -5946.4240" DelE="          0.0000"
Cr    -3.48693659    0.06247318    0.00531774       1
Ni     0.02428445    0.01438746    3.47935758       2
Cr     3.60382173    0.00311551   -0.10826119       3
Co     0.09645020    0.02646926   -3.60592238       4
Ni     0.02548008   -3.51369616   -0.06171816       5
Ni     0.00982901    3.53454957   -0.04205521       6
Co    -1.76402981   -1.71871980   -0.02025827       7
Co    -1.77388711    1.74494090   -0.00687362       8
Cr     0.08392297   -1.73419196    1.72965912       9
Co     0.06485723    1.78451464    1.74017004      10
Co    -1.74565093    0.01336233   -1.83087542      11
Co     1.85959938    0.01209176    1.74091161      12
Co     1.82498566   -0.01029794   -1.83270961      13
Ni     0.02750875   -1.74542735   -1.83258841      14
Cr     0.04796545    1.74272257   -1.77239846      15
Co     1.85296461   -1.76491134   -0.06020064      16
Co     1.81780047    1.78231223   -0.05733243      17
Ni     0.00000000    0.00000000    0.00000000      18
          18
Lattice="  24.8920   0.0000   0.0000   0.0000  24.8920   0.0000   0.0000   0.0000  24.8920 " ConfE="      -5945.8943" DelE="          0.5297"
Cr    -3.47418541    0.04150800    0.01347933       1
Ni     0.03883797    0.00210015    3.47173209       2
Cr     3.60419491   -0.00390573   -0.09222674       3
Co     0.09434664    0.01549451   -3.60054475       4
Ni     0.07085082   -3.59451765   -0.07596979       5
Ni     0.03988540    3.61400508   -0.06459344       6
Co    -1.77407551   -1.90812652   -0.09870432       7
Co    -1.74490970    1.91036158   -0.09581932       8
Cr     0.16760542   -1.92974770    1.73601408       9
Co     0.16058873    1.96531819    1.77394380      10
Co    -1.71797840    0.00532912   -1.75035382      11
Co     1.79069326    0.00546250    1.69762248      12
Co     1.79983859   -0.01447126   -1.79905538      13
Ni     0.03662370   -1.73552029   -1.78350902      14
Cr     0.04446530    1.66732337   -1.68585197      15
Co     1.82234654   -1.75640510   -0.04487324      16
Co     1.76944126    1.75348995   -0.06352785      17
Ni    -1.02123382   -0.00015755    1.11312291      18
          18
Lattice="  24.8920   0.0000   0.0000   0.0000  24.8920   0.0000   0.0000   0.0000  24.8920 " ConfE="      -5946.3224" DelE="          0.1015"
Cr    -3.55651973    0.04269633   -0.05618763       1
Ni     0.04807762    0.01305850    3.52556995       2
Cr     3.62320855    0.00281910   -0.11167909       3
Co     0.09777677    0.02360354   -3.62574941       4
Ni     0.03571068   -3.53426388   -0.07187058       5
Ni     0.02240573    3.56141056   -0.05114012       6
Co    -1.73460777   -1.73568108   -0.06564557       7
Co    -1.73296312    1.78593655   -0.07057829       8
Cr     0.12612878   -1.69944870    1.65221422       9
Co     0.09205215    1.78398383    1.71097284      10
Co    -1.71408905    0.02725111   -1.78931276      11
Co     1.80429544   -0.00160608    1.70197496      12
Co     1.80840712   -0.00367084   -1.81702524      13
Ni     0.03595806   -1.71670721   -1.81012170      14
Cr     0.04495730    1.67312738   -1.71659466      15
Co     1.83441112   -1.74698698   -0.06589460      16
Co     1.78673923    1.75254286   -0.07037645      17
Ni    -1.66352296    0.03008570    1.65462583      18
