          18
Lattice="  24.8920   0.0000   0.0000   0.0000  24.8920   0.0000   0.0000   0.0000  24.8920 " ConfE="      -5943.9481" DelE="          0.0000"
Co     0.04942390    0.00775087   -3.50889453       1
Ni     3.46736156   -0.01176267   -0.01968539       2
Co    -0.04114930   -0.04037682    3.52118725       3
Co    -3.57359233   -0.01057890    0.02559138       4
Co    -0.00977492   -3.56768285    0.01730309       5
Cr    -0.01327358    3.49353765   -0.03923374       6
Ni     0.02965456   -1.74957706   -1.75115250       7
Cr     0.09471775    1.66622901   -1.75674956       8
Ni     1.76301985   -1.76372713   -0.00317031       9
Co     1.68734243    1.72151143   -0.07830405      10
Co    -1.80032254    0.00829326   -1.72575405      11
Cr     1.69084756   -0.01802870    1.84817386      12
Cr    -1.72696662   -0.08848714    1.74758567      13
Cr    -1.78677079   -1.80951671   -0.00628567      14
Cr    -1.76494149    1.74599640   -0.02744522      15
Co    -0.00784150   -1.81483468    1.77685349      16
Ni    -0.00363329    1.76841084    1.78538625      17
Co     0.00000000    0.00000000    0.00000000      18
          18
Lattice="  24.8920   0.0000   0.0000   0.0000  24.8920   0.0000   0.0000   0.0000  24.8920 " ConfE="      -5942.9746" DelE="          0.9735"
Co     0.01791736   -0.02227046   -3.52274152       1
Ni     3.42933089   -0.00838298   -0.03559618       2
Co    -0.03449611   -0.03762210    3.51119420       3
Co    -3.56949577   -0.01679491    0.01801761       4
Co    -0.01883131   -3.63326607    0.03113750       5
Cr    -0.04897553    3.61580249    0.00555514       6
Ni    -0.02330093   -1.94429329   -1.79142918       7
Cr    -0.07937877    1.91012861   -1.75560372       8
Ni     1.75037323   -1.84835681   -0.00350590       9
Co     1.70644108    1.90508827    0.02749437      10
Co    -1.67794679   -0.03289104   -1.65103198      11
Cr     1.61741240   -0.00842431    1.70057741      12
Cr    -1.60578010   -0.11680538    1.68033255      13
Cr    -1.72147937   -1.77069638   -0.02310983      14
Cr    -1.71858232    1.65691252   -0.00545401      15
Co     0.01133271   -1.80243727    1.73785005      16
Ni    -0.00859911    1.77791486    1.74870679      17
Co     0.95026362    0.09549417   -1.15221546      18
          18
Lattice="  24.8920   0.0000   0.0000   0.0000  24.8920   0.0000   0.0000   0.0000  24.8920 " ConfE="      -5943.5179" DelE="          0.4302"
Co    -0.01371297   -0.02384534   -3.56484789       1
Ni     3.50857675   -0.00591377    0.00373870       2
Co    -0.04402861   -0.03665340    3.52988633       3
Co    -3.58937164   -0.01035661    0.02173347       4
Co    -0.01484400   -3.58936677    0.02188101       5
Cr    -0.03617569    3.55993015   -0.03342700       6
Ni    -0.01491007   -1.76120552   -1.71492907       7
Cr     0.06421389    1.67705230   -1.72112314       8
Ni     1.73046891   -1.74711895    0.00994431       9
Co     1.65475445    1.71231010   -0.04560473      10
Co    -1.72711883    0.02013794   -1.64400077      11
Cr     1.64541858   -0.02874779    1.78037654      12
Cr    -1.62909718   -0.11446798    1.65819924      13
Cr    -1.79169706   -1.80681984   -0.00688941      14
Cr    -1.73694355    1.72023192   -0.02430434      15
Co    -0.00887739   -1.79342274    1.75491282      16
Ni    -0.01147249    1.74741991    1.74987914      17
Co     1.70674448    0.01852560   -1.77153536      18
