          18
Lattice="  24.8920   0.0000   0.0000   0.0000  24.8920   0.0000   0.0000   0.0000  24.8920 " ConfE="      -5946.1930" DelE="          0.0000"
Ni    -0.01882893   -0.00579030    3.53834783       1
Ni    -0.04426638    3.44627155    0.05563330       2
Co     0.02568578   -0.03041000   -3.56514183       3
Ni    -0.02876656   -3.57744681   -0.02303554       4
Cr     3.51659443   -0.04683700   -0.04846706       5
Cr    -3.58730969   -0.00765149   -0.00807873       6
Co     1.74163692    0.00689141    1.78744125       7
Ni    -1.75079977    0.00397769    1.74381620       8
Co     1.74199327    1.73710110    0.02733964       9
Co    -1.82183919    1.73877914   -0.00407161      10
Cr     0.04670104   -1.79570602    1.73613795      11
Cr    -0.00973647    1.66294863   -1.72879289      12
Ni    -0.03047958   -1.80012589   -1.79105216      13
Co     1.78410695   -1.81301739   -0.01626188      14
Co    -1.80938208   -1.79869361   -0.00815738      15
Co     1.76539590   -0.05959322   -1.79158265      16
Co    -1.80719137   -0.04071505   -1.76767197      17
Co     0.00000000    0.00000000    0.00000000      18
          18
Lattice="  24.8920   0.0000   0.0000   0.0000  24.8920   0.0000   0.0000   0.0000  24.8920 " ConfE="      -5945.4032" DelE="          0.7898"
Ni    -0.02313217    0.00676032    3.48623053       1
Ni    -0.04006661    3.40333589    0.04488007       2
Co     0.03359485   -0.02206113   -3.56290417       3
Ni    -0.03573516   -3.56641985   -0.01420367       4
Cr     3.58675371   -0.05423511   -0.07614954       5
Cr    -3.65402518   -0.01404290   -0.02563001       6
Co     1.92327136   -0.03749834    1.84534547       7
Ni    -1.91765303   -0.02048426    1.77860850       8
Co     1.92260602    1.78550479   -0.02482615       9
Co    -1.92379220    1.75583297   -0.01483166      10
Cr     0.03378892   -1.71146039    1.68717924      11
Cr    -0.01505754    1.61780959   -1.67890111      12
Ni    -0.03225227   -1.74535133   -1.74045876      13
Co     1.77743281   -1.77513353    0.00596997      14
Co    -1.81075388   -1.75977121    0.00779889      15
Co     1.74956818   -0.03070296   -1.74287838      16
Co    -1.79359574   -0.01073114   -1.73841463      17
Co     0.05416799    0.70857577    0.72781937      18
          18
Lattice="  24.8920   0.0000   0.0000   0.0000  24.8920   0.0000   0.0000   0.0000  24.8920 " ConfE="      -5946.3224" DelE="         -0.1294"
Ni    -0.01841913   -0.04057814    3.57445848       1
Ni    -0.04409102    3.50777393   -0.00225159       2
Co     0.03128002   -0.03003309   -3.57686088       3
Ni    -0.03078607   -3.58790052   -0.02298205       4
Cr     3.55671180   -0.05081753   -0.06279056       5
Cr    -3.62301649   -0.01094030   -0.00729910       6
Co     1.73779869   -0.05524272    1.75086349       7
Ni    -1.73001972   -0.02355094    1.70351436       8
Co     1.72024248    1.69890623   -0.02148792       9
Co    -1.79945987    1.73229992   -0.02168976      10
Cr     0.05963203   -1.75308533    1.70110275      11
Cr    -0.02153945    1.61949075   -1.66770613      12
Ni    -0.03053869   -1.77034384   -1.76123317      13
Co     1.76791436   -1.80062362   -0.01700607      14
Co    -1.80110453   -1.78931771   -0.01675704      15
Co     1.74191037   -0.05730747   -1.76813671      16
Co    -1.78058581   -0.02638553   -1.74042423      17
Co     0.02555540    1.73034720    1.75986137      18
