          18
Lattice="  24.8920   0.0000   0.0000   0.0000  24.8920   0.0000   0.0000   0.0000  24.8920 " ConfE="      -5923.3707" DelE="          0.0000"
Ni    -0.01237683   -0.01949488   -3.45836867       1
Co    -3.54361648   -0.00157930    0.02250895       2
Co     3.54437815   -0.00599415    0.04821435       3
Cr     0.02321013   -0.02191372    3.58966312       4
Co     0.02413833    3.55157916    0.04231584       5
Cr     0.00844480   -3.53384256    0.02289697       6
Ni    -1.78530424    1.71778318   -0.02475712       7
Ni    -1.75803699   -1.73880800   -0.01841961       8
Ni     1.82158428    0.00388476   -1.72647245       9
Co     0.01066721    1.78308419   -1.75901669      10
Co    -0.01698088   -1.78513712   -1.77068751      11
Ni    -0.00397545    1.75305566    1.80076894      12
Co    -1.75751077   -0.02829393    1.83998802      13
Co     1.80027862    1.78185283    0.06568445      14
Co     1.77168604   -1.76114220    0.01774428      15
Cr     1.80329354    0.01006148    1.80982775      16
Co     0.02328134   -1.75622983    1.82164097      17
Ni     0.00000000    0.00000000    0.00000000      18
          18
Lattice="  24.8920   0.0000   0.0000   0.0000  24.8920   0.0000   0.0000   0.0000  24.8920 " ConfE="      -5922.7647" DelE="          0.6060"
Ni    -0.02264970   -0.01882895   -3.38931981       1
Co    -3.48086128   -0.00160890    0.00628385       2
Co     3.54308724   -0.00621477    0.04436582       3
Cr     0.01729686   -0.01822370    3.60259360       4
Co     0.03295536    3.59206927    0.05730046       5
Cr     0.01744647   -3.58924028    0.03893921       6
Ni    -1.80080287    1.86291879    0.02188317       7
Ni    -1.77597278   -1.88829593    0.03222045       8
Ni     1.78150526    0.01901904   -1.70430340       9
Co     0.06920589    1.96228633   -1.80915280      10
Co     0.06056977   -1.98291988   -1.80811141      11
Ni    -0.00905662    1.75408642    1.79485530      12
Co    -1.71454640   -0.02946593    1.77695980      13
Co     1.75627426    1.75778316    0.06228110      14
Co     1.71478208   -1.71737061    0.01709618      15
Cr     1.72586262    0.00656840    1.74044434      16
Co     0.03182492   -1.72618095    1.79450066      17
Ni    -0.62239246   -0.01317360   -0.74314839      18
          18
Lattice="  24.8920   0.0000   0.0000   0.0000  24.8920   0.0000   0.0000   0.0000  24.8920 " ConfE="      -5923.5467" DelE="         -0.1760"
Ni     0.02908887   -0.02392500   -3.50287720       1
Co    -3.57345218   -0.00878688    0.06056639       2
Co     3.56434892   -0.00470008    0.04630735       3
Cr     0.01827954   -0.02075983    3.61514651       4
Co     0.02599236    3.56336771    0.05039738       5
Cr     0.01858591   -3.56207447    0.04211569       6
Ni    -1.75962237    1.72158360    0.01979275       7
Ni    -1.72602207   -1.75202048    0.02384427       8
Ni     1.77525174    0.01079259   -1.69363965       9
Co     0.02307737    1.77358458   -1.73365504      10
Co     0.03158353   -1.79393195   -1.72948368      11
Ni    -0.00232812    1.70388920    1.77773591      12
Co    -1.74286037   -0.03420298    1.81489837      13
Co     1.77770410    1.74688460    0.07934627      14
Co     1.73635651   -1.70631645    0.04130261      15
Cr     1.77431383    0.01149392    1.77567139      16
Co     0.04168248   -1.70120903    1.79937349      17
Ni    -1.72756549   -0.02335760   -1.71999501      18
