          18
Lattice="  24.8920   0.0000   0.0000   0.0000  24.8920   0.0000   0.0000   0.0000  24.8920 " ConfE="      -5945.0211" DelE="          0.0000"
Ni     0.05109816    3.51351809    0.03734648       1
Cr     3.51659462   -0.00214286    0.01700739       2
Ni    -0.01318333   -3.57641270    0.01161355       3
Cr    -3.51827376    0.04614800   -0.01784975       4
Cr     0.04861301    0.04463060   -3.48343005       5
Co    -0.01460365    0.02092519    3.54811534       6
Ni     0.02840853    1.79924782   -1.73459416       7
Co     0.00106099    1.76342857    1.78032803       8
Co     1.82984219    0.07983251   -1.69730593       9
Co     1.73264230    0.05024565    1.72308206      10
Co    -1.81195913    1.76688677    0.04605370      11
Co     1.73300382   -1.79708613   -0.00847517      12
Co    -1.80308615   -1.75856378   -0.00330173      13
Ni    -1.76548374    0.04107395   -1.75709575      14
Co    -1.78387092   -0.01510888    1.80536909      15
Cr     0.05204255   -1.67894670   -1.64910863      16
Cr    -0.02175800   -1.68890161    1.71260548      17
Co     0.00000000    0.00000000    0.00000000      18
          18
Lattice="  24.8920   0.0000   0.0000   0.0000  24.8920   0.0000   0.0000   0.0000  24.8920 " ConfE="      -5944.1891" DelE="          0.8321"
Ni     0.06891996    3.47699644    0.03511952       1
Cr     3.44713092    0.04944536    0.02426982       2
Ni    -0.00289280   -3.57775899    0.01447650       3
Cr    -3.52802083    0.04455720   -0.03104814       4
Cr     0.03197080    0.02715796   -3.56537586       5
Co    -0.01569752   -0.00123276    3.61948280       6
Ni    -0.02358364    1.85521401   -1.89804003       7
Co    -0.04053858    1.77267521    1.91352550       8
Co     1.81884150    0.02168090   -1.93398891       9
Co     1.74568890   -0.01016939    1.92213118      10
Co    -1.71019013    1.73134740    0.05680310      11
Co     1.69506475   -1.70700501   -0.00334853      12
Co    -1.73756252   -1.72492013    0.00802827      13
Ni    -1.68228645    0.04874577   -1.71626837      14
Co    -1.73961157   -0.02519923    1.79898589      15
Cr     0.05986509   -1.64112937   -1.62769938      16
Cr    -0.01247019   -1.63772346    1.68768834      17
Co     0.88162512    0.83570749   -0.00906896      18
          18
Lattice="  24.8920   0.0000   0.0000   0.0000  24.8920   0.0000   0.0000   0.0000  24.8920 " ConfE="      -5945.1930" DelE="         -0.1719"
Ni     0.00859710    3.57191174    0.03082310       1
Cr     3.58009269   -0.03581766    0.01530602       2
Ni    -0.00996174   -3.59502912    0.01350607       3
Cr    -3.55511555    0.03957880   -0.03493896       4
Cr     0.03314602    0.03723423   -3.52399087       5
Co    -0.01760005    0.02138502    3.56576894       6
Ni     0.00750777    1.78572334   -1.71959767       7
Co    -0.01737027    1.74314239    1.76057302       8
Co     1.76008332    0.01345172   -1.72728167       9
Co     1.69617044    0.01715052    1.72621773      10
Co    -1.78117954    1.75552802    0.05594259      11
Co     1.69260563   -1.75316405   -0.00190216      12
Co    -1.75979031   -1.74379334    0.00573894      13
Ni    -1.71917674    0.03441083   -1.70358758      14
Co    -1.75325389   -0.02452645    1.77688939      15
Cr     0.04508369   -1.66966026   -1.61751714      16
Cr    -0.02636135   -1.65457497    1.65990473      17
Co     1.80979030    1.77836135    0.01157677      18
