          18
Lattice="  24.8920   0.0000   0.0000   0.0000  24.8920   0.0000   0.0000   0.0000  24.8920 " ConfE="      -5933.7245" DelE="          0.0000"
Ni     0.01439912   -0.07344500    3.54140173       1
Cr    -0.05727287    3.49082472    0.06742028       2
Co    -3.54292611   -0.02592353    0.00043982       3
Ni     0.01700679   -3.57943881    0.01727418       4
Ni    -0.01587406   -0.02030219   -3.51021644       5
Co     3.61379839   -0.03735852    0.02213363       6
Ni     0.00197004    1.71322335    1.78390373       7
Cr    -1.76451465    0.00065683    1.64550236       8
Cr     0.02298139    1.73597323   -1.65377255       9
Cr    -1.77377228    0.10227338   -1.62424211      10
Co     1.81237006   -0.08585476    1.76045538      11
Co     1.84721661    1.75489781    0.04168465      12
Cr     1.88929269   -1.76234673    0.03793725      13
Co     1.81375515   -0.01529958   -1.73218600      14
Cr     0.03512540   -1.79404046    1.73420243      15
Cr    -1.81734146   -1.83632816   -0.05997479      16
Cr     0.08790583   -1.75567513   -1.70021315      17
Co     0.00000000    0.00000000    0.00000000      18
          18
Lattice="  24.8920   0.0000   0.0000   0.0000  24.8920   0.0000   0.0000   0.0000  24.8920 " ConfE="      -5933.1180" DelE="          0.6065"
Ni     0.03455881   -0.07995467    3.62425542       1
Cr    -0.14454120    3.34471414    0.06055695       2
Co    -3.54467522   -0.03370694    0.01290581       3
Ni    -0.00150944   -3.54585502    0.02058672       4
Ni    -0.01157495   -0.03546521   -3.56046253       5
Co     3.63767978   -0.03843613    0.03503065       6
Ni     0.02646664    1.69416944    1.91156426       7
Cr    -1.83225262   -0.07106482    1.97541210       8
Cr     0.04474112    1.63568476   -1.71820352       9
Cr    -1.90443816   -0.08537542   -1.89529061      10
Co     1.76826297   -0.10238676    1.74561101      11
Co     1.76953205    1.67647137    0.04985148      12
Cr     1.90903490   -1.73708079    0.06504194      13
Co     1.84142407   -0.00235260   -1.72316763      14
Cr     0.00745849   -1.65893659    1.63900961      15
Cr    -1.85149706   -1.78205194   -0.02118846      16
Cr     0.06221736   -1.42813842   -1.45537383      17
Co    -1.11083971    0.78385421    0.02740426      18
          18
Lattice="  24.8920   0.0000   0.0000   0.0000  24.8920   0.0000   0.0000   0.0000  24.8920 " ConfE="      -5933.5574" DelE="          0.1672"
Ni     0.02511109   -0.08526849    3.54996868       1
Cr    -0.02621309    3.53692557    0.03867102       2
Co    -3.59124458   -0.06228709   -0.00174477       3
Ni     0.02688031   -3.59123391    0.00738895       4
Ni    -0.00530792   -0.03577458   -3.52409983       5
Co     3.64908664   -0.02505888    0.02837989       6
Ni     0.03916969    1.67162784    1.75239620       7
Cr    -1.69791908   -0.06681612    1.62727255       8
Cr     0.07648653    1.60943342   -1.59741882       9
Cr    -1.74166702   -0.01557431   -1.63562956      10
Co     1.77844676   -0.11482131    1.71092099      11
Co     1.82284770    1.73748594    0.03160198      12
Cr     1.96229420   -1.77469639    0.05743469      13
Co     1.83345513   -0.00891839   -1.70674539      14
Cr     0.06170941   -1.74180445    1.63831818      15
Cr    -1.82670746   -1.84350767   -0.03761569      16
Cr     0.12409123   -1.54557309   -1.49458590      17
Co    -1.74527194    1.69975358    0.02622761      18
