          18
Lattice="  24.8920   0.0000   0.0000   0.0000  24.8920   0.0000   0.0000   0.0000  24.8920 " ConfE="      -5922.4261" DelE="          0.0000"
Cr    -0.02735746    0.09301350    3.23754151       1
Co     3.42312892    0.04583075   -0.09120073       2
Ni    -0.12563352    0.03745674   -3.66196926       3
Ni    -3.68115987    0.01263897   -0.12582698       4
Co    -0.10159757   -3.54943811   -0.16322496       5
Cr    -0.11258184    3.59955254   -0.18414156       6
Ni    -0.07702816   -1.75722230    1.64875664       7
Cr    -0.01609853    1.83437164    1.61346468       8
Co     1.62676674   -1.73280711   -0.15028132       9
Co     1.63160295    1.77026829   -0.06454120      10
Cr    -1.90705193   -0.01200870    1.62542641      11
Ni     1.65497525    0.01818250   -1.90768998      12
Cr    -1.87165658   -0.00061796   -1.87486575      13
Ni    -1.89086984   -1.75685280   -0.13457632      14
Ni    -1.85862509    1.78332569   -0.11036823      15
Co    -0.09986676   -1.75131051   -1.88743219      16
Co    -0.11262663    1.79118791   -1.84417269      17
Cr     0.00000000    0.00000000    0.00000000      18
          18
Lattice="  24.8920   0.0000   0.0000   0.0000  24.8920   0.0000   0.0000   0.0000  24.8920 " ConfE="      -5918.2459" DelE="          4.1802"
Cr     0.11501789   -0.73204308    3.10408423       1
Co     3.44275384    0.04883320   -0.11471907       2
Ni    -0.12411047    0.04108491   -3.64806345       3
Ni    -3.75730729    0.01866041   -0.13642515       4
Co    -0.11400103   -3.51209458   -0.12382719       5
Cr    -0.12655381    3.62752939   -0.23450304       6
Ni     0.01977020   -0.88296205    0.77462478       7
Cr    -0.26489852    1.40047447    2.74867856       8
Co     1.79841813   -1.87556354   -0.29283592       9
Co     1.86714401    1.91974020   -0.33546734      10
Cr    -2.09670341    0.02513471    1.68403334      11
Ni     1.65373200    0.00822443   -1.88598778      12
Cr    -1.84986096   -0.02011324   -1.81999801      13
Ni    -2.01498482   -1.76730426   -0.14553127      14
Ni    -1.89086949    1.75256333   -0.08371846      15
Co    -0.12630082   -1.72307532   -1.84070722      16
Co    -0.10105032    1.77092450   -1.75770027      17
Cr     0.31442594    1.42673448    1.02272712      18
          18
Lattice="  24.8920   0.0000   0.0000   0.0000  24.8920   0.0000   0.0000   0.0000  24.8920 " ConfE="      -5922.4656" DelE="         -0.0394"
Cr     0.01992678   -1.87940274    1.54016427       1
Co     3.43267438    0.04030830   -0.09631974       2
Ni    -0.12614510    0.03573508   -3.65564991       3
Ni    -3.67639756    0.01553948   -0.12380664       4
Co    -0.11461260   -3.55774851   -0.16472846       5
Cr    -0.11368295    3.58681166   -0.18251989       6
Ni    -0.07185219   -0.00443549   -0.07002990       7
Cr    -0.03506797    0.02719640    3.22403332       8
Co     1.63499902   -1.77227585   -0.12362235       9
Co     1.64102806    1.79179238   -0.06990354      10
Cr    -1.89130369   -0.03505472    1.63834072      11
Ni     1.65686905    0.00889465   -1.90814722      12
Cr    -1.87941208   -0.00186560   -1.88965554      13
Ni    -1.90091497   -1.76273236   -0.14566312      14
Ni    -1.85270858    1.78623075   -0.10401020      15
Co    -0.08119012   -1.78382058   -1.89403921      16
Co    -0.11378366    1.81949495   -1.86337897      17
Cr     0.01667692    1.84870827    1.62843132      18
