          18
Lattice="  24.8920   0.0000   0.0000   0.0000  24.8920   0.0000   0.0000   0.0000  24.8920 " ConfE="      -5937.1783" DelE="          0.0000"
Ni    -0.01392520   -3.52859783    0.03135257       1
Ni     3.42411548    0.01817848    0.02567303       2
Co    -0.03602767    3.57821053    0.01494233       3
Co    -3.61648720    0.07438547    0.01493630       4
Co    -0.12715478    0.05120503    3.54466664       5
Ni    -0.05747225    0.07643652   -3.54732530       6
Ni    -0.05150496   -1.75417419    1.78329439       7
Co    -0.03063946   -1.73731036   -1.76924895       8
Ni     1.71179954   -0.00618077    1.78769796       9
Cr     1.71708546    0.06239408   -1.76553046      10
Co    -1.86491349   -1.70891694    0.02554950      11
Cr     1.74812510    1.88128513    0.07987314      12
Cr    -1.80439306    1.81676220   -0.04168568      13
Cr    -1.83640686    0.07194019    1.70571920      14
Co    -1.82227708    0.08043113   -1.72790823      15
Ni    -0.06215861    1.80891660    1.78961906      16
Co    -0.00718584    1.81527745   -1.75342460      17
Ni     0.00000000    0.00000000    0.00000000      18
          18
Lattice="  24.8920   0.0000   0.0000   0.0000  24.8920   0.0000   0.0000   0.0000  24.8920 " ConfE="      -5936.5132" DelE="          0.6651"
Ni    -0.00468963   -3.47299169    0.02596541       1
Ni     3.37077253    0.01274879    0.03501623       2
Co    -0.02315775    3.59212772    0.02367111       3
Co    -3.62012120    0.06558537    0.01302369       4
Co    -0.13730132    0.06289448    3.58890524       5
Ni    -0.06970218    0.09520920   -3.59987006       6
Ni    -0.07635932   -1.77305257    1.91370669       7
Co    -0.10839860   -1.78266467   -1.96220800       8
Ni     1.73390886    0.04914390    1.94716022       9
Cr     1.73514219    0.15490040   -1.91993445      10
Co    -1.78834614   -1.67026009    0.02265354      11
Cr     1.65831610    1.79989721    0.07970511      12
Cr    -1.68293774    1.73378197   -0.05663412      13
Cr    -1.77054306    0.04994652    1.64468363      14
Co    -1.77056620    0.08010537   -1.70052501      15
Ni    -0.05572298    1.80367899    1.81198908      16
Co     0.00750806    1.78019786   -1.72751565      17
Ni     0.78245081   -0.76510937   -0.04295475      18
          18
Lattice="  24.8920   0.0000   0.0000   0.0000  24.8920   0.0000   0.0000   0.0000  24.8920 " ConfE="      -5937.0839" DelE="          0.0944"
Ni    -0.03957154   -3.56913916    0.03918892       1
Ni     3.47254823    0.05299295    0.01427267       2
Co    -0.03372825    3.60848262    0.02257633       3
Co    -3.64734933    0.07628513    0.01051063       4
Co    -0.13688902    0.06241783    3.55666154       5
Ni    -0.06757371    0.09221402   -3.55693324       6
Ni    -0.07649744   -1.72763427    1.78356040       7
Co    -0.06945473   -1.70024367   -1.76200460       8
Ni     1.67192963    0.03104691    1.76409687       9
Cr     1.64450260    0.12271814   -1.72088170      10
Co    -1.81592340   -1.66359190    0.03625910      11
Cr     1.71672360    1.83683178    0.06059683      12
Cr    -1.77375471    1.78975347   -0.04765838      13
Cr    -1.81781490    0.07359773    1.64901775      14
Co    -1.78085654    0.10599096   -1.66666101      15
Ni    -0.07633779    1.78587067    1.74960934      16
Co    -0.00198204    1.78838764   -1.69237640      17
Ni     1.67402833   -1.70141228   -0.00197802      18
