          18
Lattice="  24.8920   0.0000   0.0000   0.0000  24.8920   0.0000   0.0000   0.0000  24.8920 " ConfE="      -5946.9769" DelE="          0.0000"
Co    -3.50145720    0.02302535   -0.03374419       1
Cr    -0.06788550    3.45958154   -0.03321930       2
Ni     0.01460294   -0.03751742   -3.58337861       3
Ni     0.03401881   -0.04563369    3.53960346       4
Cr     0.03655036   -3.58239643   -0.02009826       5
Cr     3.53441947   -0.00492489    0.01411729       6
Co    -1.74687072    0.00168118   -1.75899540       7
Co    -1.76452748   -0.08025247    1.72710167       8
Co    -0.01526024    1.75011641   -1.75747600       9
Co    -0.03006517    1.77016183    1.73277792      10
Cr    -0.01361235   -1.77518351   -1.77196723      11
Co     0.01669451   -1.83827152    1.74698403      12
Co     1.77330820   -0.00459108   -1.77824521      13
Co     1.80127058   -0.01617306    1.74787807      14
Cr    -1.72244878   -1.77497615    0.01657267      15
Cr     1.74497603    1.71490723    0.00811547      16
Cr     1.77610587   -1.71814398    0.01413578      17
Co     0.00000000    0.00000000    0.00000000      18
          18
Lattice="  24.8920   0.0000   0.0000   0.0000  24.8920   0.0000   0.0000   0.0000  24.8920 " ConfE="      -5946.2731" DelE="          0.7037"
Co    -3.38669783    0.03108000   -0.04023890       1
Cr    -0.06378375    3.37636989   -0.06440543       2
Ni     0.02251642   -0.04785398   -3.65358485       3
Ni     0.03689028   -0.04586816    3.59822098       4
Cr     0.03055178   -3.60583911   -0.02099571       5
Cr     3.55680138    0.01250313    0.01333422       6
Co    -1.75749463   -0.04008500   -1.91689599       7
Co    -1.77713832   -0.10708633    1.85815987       8
Co     0.03150698    1.78828830   -1.96051296       9
Co     0.01020193    1.81658749    1.91430774      10
Cr    -0.03527571   -1.73553813   -1.78509373      11
Co     0.00888878   -1.81175668    1.75510081      12
Co     1.70981916    0.01041412   -1.75496236      13
Co     1.74044605    0.00152803    1.74336485      14
Cr    -1.60142863   -1.70730985    0.03517386      15
Cr     1.65815786    1.59529243    0.02793227      16
Cr     1.65404558   -1.59485939    0.02282986      17
Co    -0.65126830    0.71990693   -0.00847812      18
          18
Lattice="  24.8920   0.0000   0.0000   0.0000  24.8920   0.0000   0.0000   0.0000  24.8920 " ConfE="      -5947.0032" DelE="         -0.0264"
Co    -3.54479534   -0.01860602   -0.02821260       1
Cr     0.02563087    3.52571344   -0.03011217       2
Ni     0.01821366   -0.04524706   -3.60777606       3
Ni     0.03681031   -0.05204532    3.56516679       4
Cr     0.03942158   -3.61893442   -0.02312034       5
Cr     3.57313419   -0.00012645    0.01790979       6
Co    -1.70597950   -0.04928857   -1.74819231       7
Co    -1.73608665   -0.08816179    1.71822033       8
Co     0.02089317    1.72412475   -1.76476535       9
Co     0.01059294    1.73727812    1.74410146      10
Cr    -0.01592077   -1.77407754   -1.76198132      11
Co     0.01584950   -1.81835132    1.72350108      12
Co     1.74462358   -0.02030090   -1.75322719      13
Co     1.77469185   -0.02597292    1.73438181      14
Cr    -1.63523971   -1.70769825    0.03977899      15
Cr     1.63020567    1.56338483    0.02855239      16
Cr     1.70072834   -1.63282291    0.01877376      17
Co    -1.71552691    1.72130663   -0.01360033      18
