          18
Lattice="  24.8920   0.0000   0.0000   0.0000  24.8920   0.0000   0.0000   0.0000  24.8920 " ConfE="      -5923.9630" DelE="          0.0000"
Ni    -3.46711872    0.01060907   -0.00540190       1
Cr    -0.05951521   -3.48645153    0.00368957       2
Ni     3.59289293    0.03020487   -0.01143647       3
Cr     0.07126882    3.61374641   -0.09474905       4
Co     0.03375827   -0.00432205   -3.59454576       5
Co     0.06650163    0.05888321    3.53684687       6
Ni    -1.74477325   -0.01029561   -1.80562641       7
Cr    -1.59688143   -0.01996975    1.71248916       8
Ni    -0.01438351   -1.76186843   -1.76412717       9
Co     0.02510594   -1.74811609    1.69987687      10
Ni    -1.73018455    1.82335283   -0.02625326      11
Co     1.82459735   -1.74346295   -0.02644199      12
Cr     1.77981279    1.78502265   -0.03768834      13
Ni     0.00641772    1.79011951   -1.80856240      14
Co     0.07872889    1.80613647    1.74002439      15
Cr     1.74425232    0.00415119   -1.74220280      16
Cr     1.73782242   -0.01911772    1.74029375      17
Co     0.00000000    0.00000000    0.00000000      18
          18
Lattice="  24.8920   0.0000   0.0000   0.0000  24.8920   0.0000   0.0000   0.0000  24.8920 " ConfE="      -5923.2291" DelE="          0.7339"
Ni    -3.44133129    0.00835145   -0.01332922       1
Cr    -0.07435934   -3.42136144   -0.00062769       2
Ni     3.60976728    0.02659172   -0.01111114       3
Cr     0.06761019    3.61872202   -0.10015101       4
Co     0.04376906    0.02043231   -3.66810179       5
Co     0.08886438    0.07493405    3.59083105       6
Ni    -1.76940887    0.02357461   -1.95273659       7
Cr    -1.62327989    0.05769086    1.85730091       8
Ni     0.03653099   -1.76129063   -1.93644755       9
Co     0.13878466   -1.78619097    1.89890206      10
Ni    -1.69444336    1.75842398   -0.03054361      11
Co     1.73887135   -1.66822012   -0.03651740      12
Cr     1.72603601    1.72104628   -0.03119758      13
Ni     0.00483019    1.74984666   -1.80341784      14
Co     0.08275483    1.76366423    1.71897060      15
Cr     1.69778268    0.00844432   -1.69893131      16
Cr     1.68870096   -0.01326183    1.69836173      17
Co    -0.86025296   -0.87650290    0.03834706      18
          18
Lattice="  24.8920   0.0000   0.0000   0.0000  24.8920   0.0000   0.0000   0.0000  24.8920 " ConfE="      -5923.8117" DelE="          0.1513"
Ni    -3.51758415    0.03018554   -0.00819260       1
Cr    -0.00288262   -3.53835879   -0.00418506       2
Ni     3.62493109    0.03204213   -0.01103015       3
Cr     0.07489177    3.64817330   -0.10109760       4
Co     0.04693093    0.00295447   -3.60468056       5
Co     0.08074321    0.06871722    3.54971069       6
Ni    -1.72242392    0.00611469   -1.79320796       7
Cr    -1.55975439   -0.00500380    1.68447037       8
Ni     0.02659559   -1.73520582   -1.77859266       9
Co     0.07616017   -1.70830200    1.70172596      10
Ni    -1.70684049    1.77963483   -0.02282766      11
Co     1.79189254   -1.69759981   -0.03597158      12
Cr     1.76920431    1.77193464   -0.03243039      13
Ni     0.01993364    1.77329627   -1.77874679      14
Co     0.09508928    1.76327501    1.68768316      15
Cr     1.72730619    0.01987684   -1.67031119      16
Cr     1.71163636   -0.00452814    1.65891758      17
Co    -1.68661373   -1.72483052   -0.00323209      18
