          18
Lattice="  24.8920   0.0000   0.0000   0.0000  24.8920   0.0000   0.0000   0.0000  24.8920 " ConfE="      -5935.5081" DelE="          0.0000"
Co    -3.53276267   -0.01910096    0.00993671       1
Co    -0.01048195   -0.01230724    3.55037056       2
Ni     3.56853503   -0.04161801   -0.03231252       3
Co     0.02924615   -0.04894042   -3.58398849       4
Co    -0.02496631   -3.59463257   -0.02391918       5
Co     0.05540151    3.52160403   -0.01830201       6
Ni    -1.75341991   -1.75440173    0.02176429       7
Cr    -1.65828956    1.68782769    0.08614978       8
Ni    -0.00412311   -1.75335807    1.76369451       9
Co    -0.04504406    1.69441735    1.76580983      10
Ni    -1.76274548   -0.02173257   -1.79757919      11
Co     1.78495064    0.01707031    1.72601485      12
Cr     1.78423499   -0.06701370   -1.78399235      13
Co     0.00595952   -1.79869502   -1.79081416      14
Ni     0.00361755    1.72581904   -1.79723686      15
Co     1.77401754   -1.78812312   -0.04834540      16
Cr     1.72757171    1.70121352    0.04280455      17
Co     0.00000000    0.00000000    0.00000000      18
          18
Lattice="  24.8920   0.0000   0.0000   0.0000  24.8920   0.0000   0.0000   0.0000  24.8920 " ConfE="      -5934.7084" DelE="          0.7997"
Co    -3.46165489   -0.03566795    0.04803609       1
Co    -0.03274751   -0.00856269    3.48543304       2
Ni     3.57473099   -0.04042418   -0.01883986       3
Co     0.02789696   -0.05543963   -3.57456151       4
Co     0.00185732   -3.67368261   -0.03298058       5
Co     0.05829571    3.58116483   -0.03904913       6
Ni    -1.77037741   -1.92088359   -0.03873916       7
Cr    -1.72115494    1.85807725    0.00009149       8
Ni     0.03061786   -1.90727655    1.75960283       9
Co     0.08691367    1.91413700    1.82524570      10
Ni    -1.73526876   -0.03318243   -1.73430406      11
Co     1.69023511    0.00271361    1.67723657      12
Cr     1.71431772   -0.10716452   -1.67913516      13
Co     0.00829585   -1.79512087   -1.76500472      14
Ni    -0.01138015    1.69923377   -1.75173337      15
Co     1.74337798   -1.78061632   -0.04956143      16
Cr     1.61008455    1.61952276    0.06172347      17
Co    -0.88335648    0.05858982    0.88803889      18
          18
Lattice="  24.8920   0.0000   0.0000   0.0000  24.8920   0.0000   0.0000   0.0000  24.8920 " ConfE="      -5935.4006" DelE="          0.1075"
Co    -3.58886442   -0.01643021   -0.01838501       1
Co     0.00145740   -0.01156080    3.56145550       2
Ni     3.58983981   -0.04228179   -0.03107562       3
Co     0.03076043   -0.05308618   -3.59194816       4
Co    -0.01689104   -3.61886939   -0.03098864       5
Co     0.06128336    3.54192584   -0.02584211       6
Ni    -1.72622376   -1.76986423   -0.01763395       7
Cr    -1.64150175    1.68160458    0.08620750       8
Ni     0.01209839   -1.75813229    1.73192421       9
Co     0.00368707    1.71583844    1.72993868      10
Ni    -1.74388038   -0.01960520   -1.74939932      11
Co     1.72882949    0.01738177    1.66848018      12
Cr     1.75761856   -0.09548152   -1.73396743      13
Co     0.01498904   -1.78141214   -1.78649415      14
Ni     0.00568754    1.68303907   -1.75128965      15
Co     1.74431064   -1.74825519   -0.07074940      16
Cr     1.68987169    1.64470122    0.03500149      17
Co    -1.75574699    0.00739212    1.68207464      18
