          18
Lattice="  24.8920   0.0000   0.0000   0.0000  24.8920   0.0000   0.0000   0.0000  24.8920 " ConfE="      -5936.4669" DelE="          0.0000"
Ni     0.08633590    0.04121409    3.32810035       1
Cr     3.53748674   -0.04847925   -0.15119526       2
Cr    -0.02054037   -0.04296810   -3.78398492       3
Co    -3.53386793    0.00049592   -0.14749952       4
Cr     0.01176737    3.54513574   -0.14101143       5
Ni    -0.00423555   -3.55069347   -0.14504784       6
Co     0.03856977    1.77648894    1.58334150       7
Co     0.04837486   -1.75053421    1.61209891       8
Ni     1.78815355    1.71011007   -0.15190382       9
Co     1.79189380   -1.68634724   -0.11937929      10
Cr    -1.78440629    0.00804486    1.60796072      11
Cr     1.79445595    0.00250236   -1.99763144      12
Cr    -1.84572858   -0.01689445   -1.97141010      13
Ni    -1.77776338    1.76343121   -0.16721276      14
Ni    -1.78952733   -1.77192446   -0.15141619      15
Co     0.01784623    1.70359636   -1.96411118      16
Ni    -0.01495706   -1.75087024   -1.91309536      17
Cr     0.00000000    0.00000000    0.00000000      18
          18
Lattice="  24.8920   0.0000   0.0000   0.0000  24.8920   0.0000   0.0000   0.0000  24.8920 " ConfE="      -5935.8816" DelE="          0.5852"
Ni     0.07367752    0.02577994    3.31565945       1
Cr     3.51336308   -0.02256679   -0.17050580       2
Cr    -0.01792751   -0.05156570   -3.75304198       3
Co    -3.53082760   -0.00277825   -0.14570472       4
Cr     0.00833891    3.64588754   -0.16029557       5
Ni    -0.01083476   -3.60660897   -0.15138476       6
Co     0.03778084    1.88882335    1.61986667       7
Co     0.00055266   -1.92841672    1.66432609       8
Ni     1.79075459    1.83576545   -0.18842130       9
Co     1.78152855   -1.82655697   -0.16890146      10
Cr    -1.71376491    0.00902413    1.56979657      11
Cr     1.75233291    0.01601754   -1.94359564      12
Cr    -1.75971773    0.00973351   -1.88666628      13
Ni    -1.69768084    1.73341162   -0.13619180      14
Ni    -1.72204358   -1.73581429   -0.12854177      15
Co     0.03934244    1.70023150   -1.93745806      16
Ni    -0.00417442   -1.74514218   -1.88370774      17
Cr     0.77057730   -0.04801157    0.76449094      18
          18
Lattice="  24.8920   0.0000   0.0000   0.0000  24.8920   0.0000   0.0000   0.0000  24.8920 " ConfE="      -5936.5975" DelE="         -0.1307"
Ni     0.01457284    0.02675946    3.43276440       1
Cr     3.58532989   -0.03517071   -0.19184759       2
Cr    -0.01877226   -0.04343837   -3.78477375       3
Co    -3.56194084   -0.00005118   -0.15088322       4
Cr     0.01338592    3.56611756   -0.14282060       5
Ni    -0.00971718   -3.56032800   -0.15903351       6
Co     0.01850780    1.73142743    1.58657179       7
Co     0.02525460   -1.72599022    1.60052514       8
Ni     1.75031245    1.69584677   -0.17665743       9
Co     1.76896755   -1.69822911   -0.16963385      10
Cr    -1.68151294    0.00646459    1.56662406      11
Cr     1.76518304   -0.00050092   -1.96755134      12
Cr    -1.80255449    0.00982651   -1.94070702      13
Ni    -1.74302549    1.72503488   -0.16467666      14
Ni    -1.76454486   -1.72153064   -0.16557257      15
Co     0.01777899    1.69846695   -1.97230437      16
Ni    -0.01916420   -1.73344571   -1.92048798      17
Cr     1.68299064   -0.07186839    1.59441214      18
