          18
Lattice="  24.8920   0.0000   0.0000   0.0000  24.8920   0.0000   0.0000   0.0000  24.8920 " ConfE="      -5944.2323" DelE="          0.0000"
Ni     0.04929930    0.04492272   -3.45100176       1
Co     0.01914360    3.53894306   -0.01340566       2
Co     0.00899760    0.00411441    3.61762598       3
Ni     0.02485641   -3.56058431    0.05642475       4
Ni    -3.49229279    0.01198385    0.05548197       5
Ni     3.56337633    0.01447749    0.07946839       6
Cr    -1.65334498    0.08824674   -1.72572704       7
Ni     1.77904510    0.00669282   -1.72427133       8
Ni    -1.71722715    1.78045474    0.00860205       9
Ni     1.77124867    1.77188326   -0.00790890      10
Ni     0.04950330   -1.81999114   -1.73974575      11
Ni     0.03408368    1.78403664    1.81992989      12
Co     0.01136308   -1.76617068    1.84962606      13
Ni    -1.74598073   -1.77016177    0.04942586      14
Co     1.78506622   -1.78992644    0.10148509      15
Co    -1.74463413    0.04609899    1.85971279      16
Cr     1.65663221   -0.03745313    1.74811492      17
Co     0.00000000    0.00000000    0.00000000      18
          18
Lattice="  24.8920   0.0000   0.0000   0.0000  24.8920   0.0000   0.0000   0.0000  24.8920 " ConfE="      -5943.4978" DelE="          0.7346"
Ni     0.06070686    0.05039716   -3.42278718       1
Co     0.01402137    3.46395422   -0.02907762       2
Co     0.00908987    0.01297222    3.61682433       3
Ni     0.02465299   -3.54487893    0.05363493       4
Ni    -3.54204952    0.00651880    0.06680982       5
Ni     3.61941496    0.01169141    0.09144497       6
Cr    -1.80602639    0.07133085   -1.78256192       7
Ni     1.91618413   -0.02683644   -1.74684407       8
Ni    -1.90290795    1.82091486    0.11229378       9
Ni     1.92383199    1.80696591    0.04353716      10
Ni     0.04802546   -1.73242583   -1.68716413      11
Ni     0.02426697    1.76620272    1.77339666      12
Co     0.00155758   -1.73984533    1.83174786      13
Ni    -1.70957572   -1.68054968    0.05580536      14
Co     1.78480500   -1.75821363    0.08686600      15
Co    -1.76198000    0.05532334    1.87613438      16
Cr     1.55396233   -0.06477606    1.61854625      17
Co    -0.02401743    0.72410492   -0.68222546      18
          18
Lattice="  24.8920   0.0000   0.0000   0.0000  24.8920   0.0000   0.0000   0.0000  24.8920 " ConfE="      -5944.6766" DelE="         -0.4442"
Ni     0.05538380    0.00305276   -3.50399717       1
Co     0.01339083    3.56218290    0.04940653       2
Co     0.00759227    0.00390104    3.64304239       3
Ni     0.02389035   -3.56278272    0.05795298       4
Ni    -3.51071942    0.00918267    0.05997693       5
Ni     3.58554561    0.00935137    0.08994576       6
Cr    -1.66888905    0.05381355   -1.71692565       7
Ni     1.76673362   -0.01440713   -1.69512383       8
Ni    -1.71611148    1.74121759    0.04689184       9
Ni     1.76673761    1.72625943    0.03898293      10
Ni     0.03912984   -1.76905697   -1.70545748      11
Ni     0.04192307    1.74488905    1.80715921      12
Co     0.01568289   -1.74480805    1.84832238      13
Ni    -1.70737956   -1.71672820    0.06117863      14
Co     1.76543002   -1.76085979    0.11639467      15
Co    -1.73885695    0.04012075    1.86655028      16
Cr     1.62727413   -0.09209318    1.73404942      17
Co    -0.00828608    1.76684711   -1.74124195      18
