          20
Lattice="  24.8920   0.0000   0.0000   0.0000  24.8920   0.0000   0.0000   0.0000  24.8920 " ConfE="      -5934.0245" DelE="          0.0000"
Cr    -1.62028204   -1.71807359    3.19887107       1
Cr     1.45033246   -1.76042811    3.02175234       2
Co     0.02591099   -3.52742579   -0.04068112       3
Co     0.07961405    0.01194448   -3.64304306       4
Ni     0.03410556    3.63503316   -0.12950871       5
Ni     3.54472516    0.01878376   -0.08419020       6
Cr    -3.50628557    0.10047358   -0.13231666       7
Cr     0.01325947    0.12859309    3.39407271       8
Ni     1.76429786   -1.76182410    0.00423458       9
Cr    -1.57167169   -1.76667539    0.05764761      10
Cr     0.07947592   -1.73992516   -1.81426069      11
Co     0.00847386    1.90469272    1.67771252      12
Cr    -1.70331063    0.12798803    1.60816110      13
Co     1.75301359    0.09466022    1.68596937      14
Ni     1.77365321    1.83598979   -0.09860934      15
Co    -1.76285575    1.81138480   -0.08987158      16
Ni     0.03677451    1.81673185   -1.87360730      17
Ni    -1.70566016    0.01149627   -1.84678867      18
Cr     1.80195371    0.04375153   -1.82488509      19
Co     0.00000000    0.00000000    0.00000000      20
          20
Lattice="  24.8920   0.0000   0.0000   0.0000  24.8920   0.0000   0.0000   0.0000  24.8920 " ConfE="      -5930.2532" DelE="          3.7713"
Cr    -1.56440511   -1.70870129    3.17320389       1
Cr     1.51851380   -1.77602849    3.30612514       2
Co    -0.01544897   -3.69857826   -0.09097814       3
Co     0.03741983    0.00950704   -3.76146025       4
Ni     0.03118873    3.64340868   -0.10607281       5
Ni     3.25277799   -0.18687356    0.48665044       6
Cr    -3.50264356    0.07390497   -0.11832998       7
Cr    -0.04803121    0.13833754    3.62898478       8
Ni     1.58293759   -1.87949823   -0.04206938       9
Cr    -1.25658560   -1.66290766    0.11737770      10
Cr    -0.10214437   -1.86412279   -1.90411593      11
Co    -0.07778619    1.95256975    1.78668574      12
Cr    -1.60621146    0.15678549    1.58661777      13
Co     1.00391290   -0.25017152    1.65484368      14
Ni     1.58061259    1.71043650    0.10598828      15
Co    -1.73353443    1.77678575   -0.06858260      16
Ni     0.01540771    1.82026110   -1.86845776      17
Ni    -1.67926768    0.00722187   -1.83586285      18
Cr     3.12794531    1.06220220   -1.46326976      19
Co     1.39133772   -0.21193017   -1.80352528      20
          20
Lattice="  24.8920   0.0000   0.0000   0.0000  24.8920   0.0000   0.0000   0.0000  24.8920 " ConfE="      -5934.4149" DelE="         -0.3905"
Cr    -1.81345221   -1.72817886    3.43199542       1
Cr     1.78379735   -1.77217069    3.41526964       2
Co     0.01511438   -3.56530637   -0.08825094       3
Co     0.07635885    0.01514714   -3.70639861       4
Ni     0.03742474    3.61543633   -0.12086805       5
Ni     1.73592482    0.05297006    1.65025051       6
Cr    -3.53857933    0.08484425   -0.13659880       7
Cr     0.01029874    0.04496679    3.46681651       8
Ni     1.76308621   -1.73795851   -0.08990500       9
Cr    -1.63651989   -1.71294727   -0.09944312      10
Cr     0.07154404   -1.69778499   -1.83067683      11
Co    -0.00912259    1.80385967    1.65610750      12
Cr    -1.70176899    0.07349080    1.61761855      13
Co    -0.00668634   -1.72627326    1.65068552      14
Ni     1.74698197    1.78663653   -0.12007727      15
Co    -1.74374577    1.73613905   -0.07159930      16
Ni     0.04199086    1.79519176   -1.88525254      17
Ni    -1.67766947    0.02575672   -1.85283087      18
Cr     3.57326670    0.01430447   -0.04990778      19
Co     1.80799364   -0.02392676   -1.86778915      20
