          18
Lattice="  24.8920   0.0000   0.0000   0.0000  24.8920   0.0000   0.0000   0.0000  24.8920 " ConfE="      -5948.7825" DelE="          0.0000"
Cr    -0.01484778   -3.30243950    0.03536112       1
Ni    -3.60481542    0.14601511    0.00236331       2
Co     3.45333122    0.08947338    0.00266391       3
Ni    -0.02621717    0.13831333   -3.52490578       4
Co    -0.06256140    0.11535210    3.58828269       5
Cr    -0.10691196    3.73135150    0.02500675       6
Ni    -0.01941570   -1.63844083    1.78425602       7
Cr     1.74934379    0.07998461   -1.70277910       8
Co    -0.01963291   -1.61452376   -1.71488274       9
Co     1.77112709    0.09484229    1.74376033      10
Ni     1.71081580    1.93019738    0.01909937      11
Ni    -0.03178878    1.89331658   -1.74171133      12
Ni    -0.03255057    1.88064671    1.77161778      13
Cr    -1.83770667   -1.60886601    0.02023465      14
Co    -1.80614259    0.11790498   -1.73376549      15
Co    -1.82598071    0.10998649    1.78591912      16
Co    -1.80451910    1.89856762    0.02942591      17
Cr     0.00000000    0.00000000    0.00000000      18
          18
Lattice="  24.8920   0.0000   0.0000   0.0000  24.8920   0.0000   0.0000   0.0000  24.8920 " ConfE="      -5948.2177" DelE="          0.5648"
Cr    -0.03432857   -3.32592482    0.02578397       1
Ni    -3.61532335    0.15329599    0.00229562       2
Co     3.43421604    0.10254359    0.01127680       3
Ni    -0.02854841    0.14478565   -3.56119841       4
Co    -0.07826729    0.12668427    3.64157197       5
Cr    -0.10192331    3.70918899    0.02132991       6
Ni    -0.06606386   -1.64675704    1.86081850       7
Cr     1.79345886    0.17234765   -1.88026206       8
Co    -0.04444883   -1.62671193   -1.82908098       9
Co     1.77983009    0.15360709    1.88040019      10
Ni     1.70480186    1.89707832    0.01663328      11
Ni    -0.02238884    1.86102491   -1.72996387      12
Ni    -0.02595675    1.85733883    1.76345935      13
Cr    -1.75754467   -1.52854409   -0.00110951      14
Co    -1.76550512    0.10522233   -1.68958298      15
Co    -1.79779069    0.10559391    1.75954108      16
Co    -1.78055554    1.89528735    0.03554108      17
Cr     0.82878429   -0.58249414   -0.00666435      18
          18
Lattice="  24.8920   0.0000   0.0000   0.0000  24.8920   0.0000   0.0000   0.0000  24.8920 " ConfE="      -5948.6518" DelE="          0.1307"
Cr    -0.05412814   -3.37867793    0.04021495       1
Ni    -3.62202488    0.15613707    0.00185694       2
Co     3.52944995    0.13306930    0.00478478       3
Ni    -0.04223556    0.15193893   -3.55430491       4
Co    -0.07002338    0.12541848    3.62007958       5
Cr    -0.11624975    3.71712245    0.02400061       6
Ni    -0.04579292   -1.60476428    1.78980002       7
Cr     1.70538544    0.13281658   -1.71931620       8
Co    -0.04407750   -1.56877270   -1.71155558       9
Co     1.75445239    0.11736899    1.74525439      10
Ni     1.68499344    1.88175972    0.01431182      11
Ni    -0.05407407    1.88865797   -1.73213823      12
Ni    -0.05146797    1.87859262    1.76570271      13
Cr    -1.69084994   -1.48461754    0.00085862      14
Co    -1.80374717    0.12345404   -1.70462508      15
Co    -1.82611185    0.11501468    1.76794767      16
Co    -1.82325710    1.92950048    0.03739433      17
Cr     1.62173709   -1.53735532    0.01363332      18
