          18
Lattice="  24.8920   0.0000   0.0000   0.0000  24.8920   0.0000   0.0000   0.0000  24.8920 " ConfE="      -5927.7337" DelE="          0.0000"
Ni    -3.48803861   -0.04892529   -0.01173773       1
Ni     0.01139014   -0.03648249   -3.42261289       2
Ni     0.04540498   -3.56737372    0.05906726       3
Ni     0.04935941    3.50159299    0.06889725       4
Co     3.61108332   -0.03835335    0.03254751       5
Co     0.03773901   -0.04162784    3.61783867       6
Ni    -1.75075077   -0.00542498    1.83819899       7
Ni     1.85923013   -0.03587134   -1.69666961       8
Co    -1.72574288   -1.81044207    0.05438848       9
Co    -1.73373322    1.70472664   -0.02287108      10
Co     0.02653071   -1.77499372   -1.70753668      11
Cr     0.04255123    1.69904574   -1.61034283      12
Co     1.76741186   -0.02207914    1.81459098      13
Co     1.82074148   -1.80458623    0.02286293      14
Co     1.79371145    1.74597875    0.07435994      15
Cr     0.05766944   -1.62750425    1.69947446      16
Cr     0.09023668    1.65567037    1.77589949      17
Co     0.00000000    0.00000000    0.00000000      18
          18
Lattice="  24.8920   0.0000   0.0000   0.0000  24.8920   0.0000   0.0000   0.0000  24.8920 " ConfE="      -5927.0184" DelE="          0.7153"
Ni    -3.46047323   -0.04342050   -0.00892151       1
Ni     0.02685759   -0.05412949   -3.42498180       2
Ni     0.05602031   -3.61996625    0.06783414       3
Ni     0.05454626    3.55646399    0.07926474       4
Co     3.61142191   -0.04480677    0.01753121       5
Co     0.03623503   -0.03669320    3.61631472       6
Ni    -1.72114686   -0.00034577    1.79351119       7
Ni     1.79130337   -0.04474138   -1.65716065       8
Co    -1.71820167   -1.90646987    0.09003730       9
Co    -1.73912823    1.84896737    0.10486298      10
Co     0.13076196   -1.94220462   -1.75403834      11
Cr     0.15861811    1.85836498   -1.63863545      12
Co     1.75472483   -0.00536354    1.79759039      13
Co     1.79471417   -1.79248053    0.03920042      14
Co     1.73941383    1.72154915    0.07906251      15
Cr     0.08853512   -1.53716164    1.56850384      16
Cr     0.07580899    1.64082208    1.70861205      17
Co    -0.92848863    0.02011278   -1.03231482      18
          18
Lattice="  24.8920   0.0000   0.0000   0.0000  24.8920   0.0000   0.0000   0.0000  24.8920 " ConfE="      -5927.5648" DelE="          0.1689"
Ni    -3.52458561   -0.04894195    0.03578459       1
Ni     0.03800940   -0.04517227   -3.48269310       2
Ni     0.04770436   -3.59127839    0.06339783       3
Ni     0.05153047    3.52217572    0.07144081       4
Co     3.61988321   -0.04036728    0.02406173       5
Co     0.04318773   -0.04161088    3.63497639       6
Ni    -1.71577397   -0.00602680    1.81386175       7
Ni     1.80119732   -0.04018414   -1.66148652       8
Co    -1.68852355   -1.80115337    0.08602447       9
Co    -1.69308679    1.70466951    0.04982632      10
Co     0.05029336   -1.77741760   -1.68527019      11
Cr    -0.00320227    1.58738129   -1.51353707      12
Co     1.75159076   -0.01193071    1.80085020      13
Co     1.79013175   -1.78961729    0.04480396      14
Co     1.73665819    1.71561742    0.08175825      15
Cr     0.08509346   -1.55792681    1.61285811      16
Cr     0.10630847    1.63328972    1.74657955      17
Co    -1.70476565   -0.04536750   -1.69096209      18
