          18
Lattice="  24.8920   0.0000   0.0000   0.0000  24.8920   0.0000   0.0000   0.0000  24.8920 " ConfE="      -5938.3292" DelE="          0.0000"
Ni     0.00968587   -0.03278629   -3.44223840       1
Ni     3.48181487    0.02457493    0.02257682       2
Ni    -0.06203350   -0.02068573    3.61474257       3
Cr    -3.70126922   -0.01398521    0.05764309       4
Co    -0.06159164    3.52548909    0.02538651       5
Co    -0.02934201   -3.55644863    0.05190441       6
Ni     1.74131725    1.75467594   -0.00131613       7
Ni     1.72955724   -1.75303127    0.00039088       8
Ni    -0.02372169   -1.78858653   -1.72448283       9
Ni    -0.03083607    1.76417838    1.82193931      10
Cr    -0.00920907    1.74597466   -1.74427649      11
Ni    -1.81234739    1.72717636    0.05264863      12
Co     1.69150381   -0.02618359    1.82446565      13
Cr    -1.81606078   -0.05887833    1.84811821      14
Cr    -0.04156043   -1.77355091    1.76902069      15
Cr    -1.90090097   -0.04122715   -1.75095408      16
Cr    -1.87591340   -1.81003574    0.00406814      17
Cr     0.00000000    0.00000000    0.00000000      18
          18
Lattice="  24.8920   0.0000   0.0000   0.0000  24.8920   0.0000   0.0000   0.0000  24.8920 " ConfE="      -5937.6251" DelE="          0.7041"
Ni    -0.00660297   -0.04374755   -3.41954082       1
Ni     3.42415568    0.01831545    0.02280221       2
Ni    -0.06108191   -0.02460658    3.61058737       3
Cr    -3.67889452   -0.00949849    0.03691670       4
Co    -0.07977430    3.59102549    0.05340579       5
Co    -0.03341932   -3.63401554    0.04379238       6
Ni     1.76114183    1.92884111    0.10802968       7
Ni     1.74531674   -1.89415242    0.01312045       8
Ni    -0.04463580   -1.89673970   -1.73710638       9
Ni    -0.03308744    1.75550889    1.81029687      10
Cr    -0.07783811    1.88098776   -1.75609245      11
Ni    -1.74609389    1.68568720    0.04842670      12
Co     1.63316881   -0.03714488    1.73388975      13
Cr    -1.76613802   -0.09659171    1.78720861      14
Cr     0.00307915   -1.70493950    1.66718678      15
Cr    -1.85221185   -0.05702059   -1.70906647      16
Cr    -1.80167203   -1.78143716   -0.01374710      17
Cr     0.95983750    0.09066175   -0.96001915      18
          18
Lattice="  24.8920   0.0000   0.0000   0.0000  24.8920   0.0000   0.0000   0.0000  24.8920 " ConfE="      -5938.2401" DelE="          0.0891"
Ni    -0.04393700   -0.03773044   -3.51256071       1
Ni     3.50814206    0.03101115    0.05196259       2
Ni    -0.06512649   -0.02843398    3.63738901       3
Cr    -3.70547845   -0.01594590    0.04775461       4
Co    -0.06585147    3.54785640    0.04156761       5
Co    -0.02912989   -3.58114467    0.04178253       6
Ni     1.72023219    1.76337447    0.04060971       7
Ni     1.70535891   -1.75476083    0.01132882       8
Ni    -0.04398574   -1.76896157   -1.70396142       9
Ni    -0.04136411    1.74048877    1.83198976      10
Cr    -0.04975969    1.73792744   -1.71253958      11
Ni    -1.76944322    1.67610624    0.06992086      12
Co     1.64762963   -0.04355000    1.77816928      13
Cr    -1.76370355   -0.11334605    1.79961296      14
Cr    -0.01960181   -1.74230993    1.75030336      15
Cr    -1.84751964   -0.03036380   -1.71747151      16
Cr    -1.85502141   -1.78730544    0.00287710      17
Cr     1.68328182    0.06280590   -1.69718258      18
