          18
Lattice="  24.8920   0.0000   0.0000   0.0000  24.8920   0.0000   0.0000   0.0000  24.8920 " ConfE="      -5938.1028" DelE="          0.0000"
Ni    -3.45670380    0.03454625   -0.01997052       1
Cr    -0.05538455   -3.43127093    0.01283930       2
Co     0.03607124    0.05460231    3.58698916       3
Cr     0.00112536    0.07693346   -3.58072629       4
Cr     3.56000239    0.07626660   -0.04431079       5
Co     0.03151036    3.59904622   -0.01254845       6
Ni    -0.00163095   -1.71179537    1.75903314       7
Ni    -1.76376119    0.06168488    1.78990629       8
Cr    -0.03020429   -1.68394467   -1.79760429       9
Co    -1.71897034    0.05742837   -1.78039937      10
Ni     1.81917033    0.04140234    1.80245366      11
Cr     1.81829830   -1.71796345   -0.02854815      12
Cr    -1.67050584    1.86097624   -0.02664046      13
Co    -0.01181576    1.83928980    1.78716342      14
Co     1.80625708    0.02191324   -1.79552646      15
Co     0.06796307    1.79758102   -1.79150961      16
Cr     1.73966556    1.81920291    0.03445492      17
Ni     0.00000000    0.00000000    0.00000000      18
          18
Lattice="  24.8920   0.0000   0.0000   0.0000  24.8920   0.0000   0.0000   0.0000  24.8920 " ConfE="      -5937.5767" DelE="          0.5261"
Ni    -3.39706229    0.03126367   -0.01399271       1
Cr    -0.05466405   -3.32667732    0.01690822       2
Co     0.02470581    0.07314081    3.64849545       3
Cr    -0.00951458    0.11368902   -3.63999303       4
Cr     3.57732636    0.06463047   -0.03226929       5
Co     0.03586113    3.60707183   -0.01208050       6
Ni     0.03850200   -1.73038412    1.94994458       7
Ni    -1.79601456    0.08932717    1.91168450       8
Cr     0.01384393   -1.69542032   -1.97208307       9
Co    -1.77814147    0.12753766   -1.91153422      10
Ni     1.81711062    0.03116807    1.85192552      11
Cr     1.73683347   -1.60492415   -0.01501550      12
Cr    -1.54889789    1.79309436   -0.02614573      13
Co    -0.01397123    1.80640494    1.78805885      14
Co     1.79413512    0.01467237   -1.80742748      15
Co     0.06634590    1.76176995   -1.78934825      16
Cr     1.62452448    1.67515229    0.04974114      17
Ni    -0.56354011   -0.58400499   -0.01615864      18
          18
Lattice="  24.8920   0.0000   0.0000   0.0000  24.8920   0.0000   0.0000   0.0000  24.8920 " ConfE="      -5937.6299" DelE="          0.4729"
Ni    -3.38333629    0.01754228   -0.01333612       1
Cr    -0.05158945   -3.36716705    0.03003921       2
Co     0.02991040    0.08011474    3.66753331       3
Cr    -0.01025892    0.11652848   -3.66559414       4
Cr     3.55586236    0.06429385   -0.03196302       5
Co     0.03804527    3.60254410   -0.00602843       6
Ni     0.05556496   -1.72370664    1.97646139       7
Ni    -1.78909863    0.09766880    1.93762937       8
Cr     0.02755358   -1.68637168   -1.99136235       9
Co    -1.76633337    0.13592048   -1.92936944      10
Ni     1.81049343    0.03545734    1.85947630      11
Cr     1.67882204   -1.56960237   -0.02390728      12
Cr    -1.50956962    1.74111008   -0.02560233      13
Co    -0.00960074    1.80676128    1.79298530      14
Co     1.78223692    0.01585746   -1.82046302      15
Co     0.06736841    1.76381126   -1.79642871      16
Cr     1.61283341    1.65753991    0.05258725      17
Ni    -0.80638822   -0.82750038   -0.00886184      18
