          18
Lattice="  24.8920   0.0000   0.0000   0.0000  24.8920   0.0000   0.0000   0.0000  24.8920 " ConfE="      -5940.2852" DelE="          0.0000"
Ni    -0.04639631   -0.07213449   -3.56449527       1
Ni    -0.04663297    3.40978570   -0.00855943       2
Co    -0.01249077   -0.05319410    3.54352674       3
Cr    -0.04343347   -3.62318882   -0.00067082       4
Ni    -3.56478457   -0.09908126    0.01211104       5
Cr     3.56466558   -0.06350537    0.00158382       6
Ni    -1.75738429   -0.04651988   -1.77733155       7
Ni     1.75364899   -0.07256030   -1.78533595       8
Cr    -1.77181665    1.58964833    0.07716062       9
Cr     1.72180537    1.65959808   -0.01687570      10
Ni    -0.02750995   -1.88204612   -1.79527533      11
Cr    -0.08794275    1.68469430    1.84116266      12
Ni    -0.00966395   -1.83836738    1.77087663      13
Co    -1.78900363   -1.84240258    0.03958610      14
Ni     1.76655547   -1.87499018   -0.04418961      15
Co    -1.78285979   -0.07102087    1.79968461      16
Cr     1.78267546   -0.07519621    1.72664307      17
Co     0.00000000    0.00000000    0.00000000      18
          18
Lattice="  24.8920   0.0000   0.0000   0.0000  24.8920   0.0000   0.0000   0.0000  24.8920 " ConfE="      -5939.7820" DelE="          0.5033"
Ni    -0.04430391   -0.06609216   -3.53557191       1
Ni    -0.05054516    3.40513942    0.00921497       2
Co    -0.02106286   -0.04622988    3.53734050       3
Cr    -0.04093235   -3.62989564   -0.01303485       4
Ni    -3.61110818   -0.12408723    0.01441568       5
Cr     3.63843731   -0.09729707    0.01360796       6
Ni    -1.87124034   -0.09104341   -1.80189317       7
Ni     1.85400456   -0.11114039   -1.80099830       8
Cr    -1.96079018    1.62794444    0.14166191       9
Cr     1.95093902    1.68899664    0.01178594      10
Ni    -0.03556532   -1.83220682   -1.76873216      11
Cr    -0.09989709    1.63896834    1.78225584      12
Ni    -0.01238615   -1.79830998    1.72640662      13
Co    -1.79981593   -1.83271042    0.03238720      14
Ni     1.75930379   -1.84292593   -0.05160228      15
Co    -1.75902753   -0.05790781    1.74262402      16
Cr     1.73135177   -0.04941192    1.65949993      17
Co    -0.01485496    0.95801912   -0.74854756      18
          18
Lattice="  24.8920   0.0000   0.0000   0.0000  24.8920   0.0000   0.0000   0.0000  24.8920 " ConfE="      -5940.1712" DelE="          0.1140"
Ni    -0.04116552   -0.09298397   -3.57997260       1
Ni    -0.05084086    3.48190229    0.02947983       2
Co    -0.01778004   -0.05306838    3.55168106       3
Cr    -0.04041009   -3.65265573    0.00180623       4
Ni    -3.58432110   -0.10162197    0.01508764       5
Cr     3.60161626   -0.07634679    0.00440401       6
Ni    -1.76639031   -0.09040956   -1.74300221       7
Ni     1.75953095   -0.09934112   -1.76122484       8
Cr    -1.74745495    1.57329319    0.07740460       9
Cr     1.69623957    1.63086987    0.00673182      10
Ni    -0.02537545   -1.86982607   -1.77378406      11
Cr    -0.06720523    1.62076427    1.75496704      12
Ni    -0.00738553   -1.81983968    1.74733623      13
Co    -1.78352817   -1.84547434    0.04639960      14
Ni     1.75900037   -1.86408141   -0.03940772      15
Co    -1.74316367   -0.05591570    1.74757942      16
Cr     1.76229744   -0.08082085    1.70204134      17
Co    -0.01627599    1.65423845   -1.67240931      18
