          18
Lattice="  24.8920   0.0000   0.0000   0.0000  24.8920   0.0000   0.0000   0.0000  24.8920 " ConfE="      -5940.1528" DelE="          0.0000"
Co    -0.01720495    0.01527526   -3.49274686       1
Co     3.38372127   -0.00754356    0.00281567       2
Cr    -0.09135514   -0.03163948    3.65749758       3
Cr    -3.72746413   -0.05078530    0.02143440       4
Ni    -0.09097146   -3.52659853    0.02506562       5
Co    -0.03740843    3.46973068    0.04482673       6
Ni    -0.06797618   -1.76995694   -1.74611740       7
Ni    -0.06145439    1.71693072   -1.70692800       8
Cr     1.73632066   -1.66720087   -0.08339520       9
Cr     1.71029478    1.65442548    0.03659120      10
Co    -1.87032128    0.00689171   -1.71777327      11
Co     1.70579009   -0.01553306    1.88123775      12
Ni    -1.88270190   -0.02576402    1.82501913      13
Ni    -1.87753114   -1.76825900    0.02303029      14
Co    -1.83345437    1.72240336    0.06341975      15
Ni    -0.06831628   -1.76722555    1.80917106      16
Cr    -0.09393835    1.73441445    1.85683816      17
Cr     0.00000000    0.00000000    0.00000000      18
          18
Lattice="  24.8920   0.0000   0.0000   0.0000  24.8920   0.0000   0.0000   0.0000  24.8920 " ConfE="      -5938.9737" DelE="          1.1792"
Co    -0.03709012   -0.00704314   -3.39832918       1
Co     3.34057553   -0.00826908   -0.00550050       2
Cr    -0.14870582   -0.03464225    3.54694283       3
Cr    -3.62680086   -0.04124246    0.04361526       4
Ni    -0.09588277   -3.65622268    0.02729633       5
Co    -0.04106561    3.57119031    0.04085878       6
Ni    -0.11524292   -1.92502975   -1.73715818       7
Ni    -0.17302295    1.89704011   -1.73480300       8
Cr     1.75999366   -1.92539257   -0.01775277       9
Cr     1.70508601    1.90102532    0.05071181      10
Co    -1.80950119    0.01020603   -1.63997304      11
Co     1.64456045   -0.01216707    1.75539586      12
Ni    -1.16833842    0.01246569    1.07838790      13
Ni    -1.88702929   -1.91832043   -0.02524013      14
Co    -1.89267152    1.93736361   -0.02334760      15
Ni    -0.02030309   -1.89922938    1.79562872      16
Cr    -0.02394604    1.86247125    1.78299977      17
Cr     0.73999645    0.02020664   -0.75220519      18
          18
Lattice="  24.8920   0.0000   0.0000   0.0000  24.8920   0.0000   0.0000   0.0000  24.8920 " ConfE="      -5940.2853" DelE="         -0.1324"
Co    -0.07624262    0.00131117   -3.52023313       1
Co     3.42817026   -0.00937444    0.02062942       2
Cr    -0.13693675   -0.03225683    3.60252516       3
Cr    -3.68847303   -0.05231111    0.04267169       4
Ni    -0.11981544   -3.55272457    0.04273311       5
Co    -0.06326103    3.48382116    0.05728633       6
Ni    -0.11028046   -1.80400633   -1.73098700       7
Ni    -0.11299520    1.74513241   -1.70174264       8
Cr     1.72658948   -1.79711937   -0.00913332       9
Cr     1.67081365    1.74269129    0.11310893      10
Co    -1.86588362    0.00637902   -1.74885601      11
Co     1.72338046   -0.01769165    1.83621046      12
Ni    -0.12580838   -0.03457988    0.09103768      13
Ni    -1.90499900   -1.76414982    0.05433547      14
Co    -1.85843904    1.70325982    0.11409837      15
Ni    -0.10517202   -1.76379604    1.83359377      16
Cr    -0.14822308    1.69517308    1.86303632      17
Cr     1.64151168    0.00632875   -1.74725413      18
