          18
Lattice="  24.8920   0.0000   0.0000   0.0000  24.8920   0.0000   0.0000   0.0000  24.8920 " ConfE="      -5942.9847" DelE="          0.0000"
Ni     0.02179520   -0.01203617   -3.53490074       1
Cr     3.63810847    0.00408575   -0.06348778       2
Co     0.05204936    0.02479489    3.57989664       3
Cr    -3.56836484    0.03947254   -0.00182901       4
Co    -0.01017100   -3.53483176   -0.00494536       5
Co     0.03486049    3.53487170    0.02879126       6
Ni     1.77732280   -1.72849295    0.00947953       7
Ni     1.78953351    1.71940742    0.05487521       8
Ni     0.02457393   -1.75269721    1.77471364       9
Ni     0.01965441    1.73972155    1.79325057      10
Ni     1.78369703   -0.01300051   -1.78963497      11
Ni    -1.74688415   -0.00447515   -1.76071480      12
Ni    -1.77644081    0.00831890    1.79756923      13
Cr    -0.01460668   -1.86271151   -1.77559754      14
Co     0.02992308    1.79720078   -1.77025686      15
Co    -1.80966790   -1.76302845   -0.00956767      16
Cr    -1.80232153    1.74578465   -0.00634445      17
Ni     0.00000000    0.00000000    0.00000000      18
          18
Lattice="  24.8920   0.0000   0.0000   0.0000  24.8920   0.0000   0.0000   0.0000  24.8920 " ConfE="      -5942.0661" DelE="          0.9186"
Ni     0.03522339   -0.00883637   -3.51976242       1
Cr     3.55619822   -0.00142513   -0.00285329       2
Co     0.05789536    0.02427978    3.57650764       3
Cr    -3.55002268    0.04145652    0.01220123       4
Co    -0.03264503   -3.59898206   -0.01910368       5
Co     0.01086822    3.60064851    0.00681412       6
Ni     1.77937196   -1.89759030   -0.03355636       7
Ni     1.79719497    1.87775175   -0.00933292       8
Ni    -0.03299200   -1.93422471    1.82106338       9
Ni    -0.05377927    1.91875870    1.82595679      10
Ni     1.73663329   -0.01819640   -1.68164196      11
Ni    -1.68615407    0.00202560   -1.70207421      12
Ni    -1.66645261    0.00917443    1.76326993      13
Cr    -0.01379716   -1.83889173   -1.72219469      14
Co     0.01914625    1.79046354   -1.71551503      15
Co    -1.74466677   -1.74346239   -0.00208494      16
Cr    -1.74518697    1.71981362    0.00565122      17
Ni     1.05054371    0.00140555    1.12678181      18
          18
Lattice="  24.8920   0.0000   0.0000   0.0000  24.8920   0.0000   0.0000   0.0000  24.8920 " ConfE="      -5943.0004" DelE="         -0.0157"
Ni     0.02494499   -0.01016458   -3.54395988       1
Cr     3.65931722   -0.00977941   -0.05707768       2
Co     0.01128994    0.01978154    3.61366098       3
Cr    -3.57816306    0.03846110   -0.00709966       4
Co    -0.01431942   -3.56154389   -0.00550122       5
Co     0.02743921    3.56230829    0.02091897       6
Ni     1.74442835   -1.73604747   -0.00476246       7
Ni     1.76814569    1.73627553    0.02000892       8
Ni     0.00586629   -1.75098773    1.75713948       9
Ni    -0.00745628    1.73812565    1.75647494      10
Ni     1.75164565   -0.02066047   -1.74202353      11
Ni    -1.69389242   -0.00264388   -1.71676674      12
Ni    -1.74238916    0.00883510    1.76068830      13
Cr    -0.01717203   -1.85327271   -1.76521055      14
Co     0.01855236    1.77671199   -1.73205241      15
Co    -1.77276441   -1.74559640   -0.01786716      16
Cr    -1.77784651    1.71564784   -0.01012807      17
Ni     1.79744794    0.01444421    1.78437704      18
