          18
Lattice="  24.8920   0.0000   0.0000   0.0000  24.8920   0.0000   0.0000   0.0000  24.8920 " ConfE="      -5934.7632" DelE="          0.0000"
Ni    -3.52180975    0.00602271    0.03109116       1
Cr    -0.01471807    0.00909989   -3.54815690       2
Co     3.60336569    0.01585204    0.04690204       3
Cr     0.01944035   -0.02213764    3.61718025       4
Cr     0.03210147    3.48305996   -0.00726183       5
Co     0.00842216   -3.52200994    0.02813630       6
Ni     0.01213274    1.73303736   -1.79134994       7
Ni     0.01598960   -1.73735874   -1.75862779       8
Co    -1.71920631    1.76357979   -0.00184508       9
Cr    -1.77306473   -1.72440370   -0.00607054      10
Ni     1.80935740    1.77723487    0.01287465      11
Co     1.81200676    0.01448473   -1.77552617      12
Cr    -1.74359554    0.03098580    1.85640399      13
Co     1.77513201    0.00643815    1.81509087      14
Cr     0.02026605    1.78005373    1.82340470      15
Cr     0.03108111   -1.78869133    1.81230966      16
Cr     1.80661011   -1.74360108    0.05014034      17
Ni     0.00000000    0.00000000    0.00000000      18
          18
Lattice="  24.8920   0.0000   0.0000   0.0000  24.8920   0.0000   0.0000   0.0000  24.8920 " ConfE="      -5934.0753" DelE="          0.6879"
Ni    -3.50768195   -0.01615200    0.01458895       1
Cr    -0.03494139   -0.00248730   -3.48420757       2
Co     3.61928333    0.01849747    0.03399804       3
Cr     0.00539809   -0.01422926    3.62078840       4
Cr     0.06827691    3.53400247    0.01145230       5
Co     0.03675404   -3.57457096    0.04182229       6
Ni     0.06329367    1.82323188   -1.76957200       7
Ni     0.09272395   -1.89520534   -1.78635577       8
Co    -1.72807736    1.94281377    0.07464076       9
Cr    -1.77925429   -1.99283925    0.07436321      10
Ni     1.78380465    1.76125547    0.00311243      11
Co     1.75491874   -0.01038927   -1.74064094      12
Cr    -1.72124960    0.01332734    1.74347462      13
Co     1.73196018    0.00572250    1.74963008      14
Cr     0.01397648    1.68835065    1.74800637      15
Cr     0.03659213   -1.67291181    1.71950592      16
Cr     1.76923910   -1.70885087    0.02168014      17
Ni    -1.11303867   -0.08466063   -0.96365721      18
          18
Lattice="  24.8920   0.0000   0.0000   0.0000  24.8920   0.0000   0.0000   0.0000  24.8920 " ConfE="      -5934.6895" DelE="          0.0738"
Ni    -3.54994937   -0.01037237    0.05023776       1
Cr     0.03287652    0.02537442   -3.58869290       2
Co     3.61443795    0.02107556    0.04588425       3
Cr     0.02791335   -0.00543842    3.66702044       4
Cr     0.04999238    3.50629244    0.00188329       5
Co     0.01851692   -3.55798584    0.03207932       6
Ni     0.04322038    1.74165018   -1.76406763       7
Ni     0.04892261   -1.74223557   -1.74334985       8
Co    -1.66710617    1.72787737    0.04192446       9
Cr    -1.64775773   -1.70741656    0.05793031      10
Ni     1.78763676    1.76236256    0.01375420      11
Co     1.77713062    0.00946112   -1.74794169      12
Cr    -1.68928257    0.03092057    1.80531862      13
Co     1.72467607    0.01124864    1.77245754      14
Cr     0.03511836    1.73688091    1.80107810      15
Cr     0.06760607   -1.72584339    1.80223164      16
Cr     1.74648218   -1.69536896    0.04297670      17
Ni    -1.72530164   -0.01689132   -1.73373441      18
