          18
Lattice="  24.8920   0.0000   0.0000   0.0000  24.8920   0.0000   0.0000   0.0000  24.8920 " ConfE="      -5923.1643" DelE="          0.0000"
Ni    -0.03031163    3.46911925   -0.03846503       1
Co     3.54182747    0.02074380   -0.01976493       2
Co    -0.04652983   -3.54748602   -0.00588633       3
Co    -3.60791492   -0.03090301   -0.03452376       4
Ni    -0.03681314   -0.07752230   -3.60806012       5
Cr    -0.04515239    0.01088792    3.52522501       6
Co    -0.02271789    1.72901679   -1.79391440       7
Cr     0.00094827    1.75949191    1.72527868       8
Ni     1.72546093   -0.03811162   -1.76971356       9
Ni     1.75543232    0.01573297    1.75779915      10
Cr    -1.87975242    1.71513692   -0.02027485      11
Cr     1.80170401   -1.80315242    0.02205145      12
Co    -1.80850925   -1.77010273   -0.03290226      13
Cr    -1.79029919   -0.01892029   -1.76210465      14
Co    -1.79427820   -0.00001257    1.74715641      15
Cr    -0.04592011   -1.82003964   -1.72287255      16
Ni    -0.02071623   -1.78836291    1.75905134      17
Ni     0.00000000    0.00000000    0.00000000      18
          18
Lattice="  24.8920   0.0000   0.0000   0.0000  24.8920   0.0000   0.0000   0.0000  24.8920 " ConfE="      -5922.5429" DelE="          0.6215"
Ni    -0.00908079    3.41406889   -0.03386909       1
Co     3.49027291    0.02069014   -0.01002890       2
Co    -0.05174031   -3.55636904    0.01293298       3
Co    -3.61480618   -0.01739523   -0.03513665       4
Ni    -0.04759378   -0.08284784   -3.68662624       5
Cr    -0.04912573   -0.03853815    3.61603111       6
Co    -0.06121115    1.78525876   -1.99570780       7
Cr    -0.06358781    1.77084290    1.93244390       8
Ni     1.73373599   -0.07099889   -1.91521343       9
Ni     1.77386257   -0.03563618    1.93202605      10
Cr    -1.78564010    1.67200540   -0.03420192      11
Cr     1.72054706   -1.69333997    0.01373345      12
Co    -1.70588633   -1.66709495   -0.05648072      13
Cr    -1.71254595    0.00336754   -1.72138638      14
Co    -1.72622913    0.03383562    1.71088487      15
Cr    -0.02481828   -1.75017992   -1.69452451      16
Ni    -0.00356708   -1.76484490    1.76722968      17
Ni     0.79851909    0.89091994   -0.00737262      18
          18
Lattice="  24.8920   0.0000   0.0000   0.0000  24.8920   0.0000   0.0000   0.0000  24.8920 " ConfE="      -5923.0734" DelE="          0.0910"
Ni    -0.05448925    3.51051460   -0.03338103       1
Co     3.58929613   -0.02319767   -0.01388660       2
Co    -0.05060737   -3.57132794    0.00423406       3
Co    -3.63172767   -0.03083968   -0.03329463       4
Ni    -0.03596112   -0.08226352   -3.62708966       5
Cr    -0.04518797   -0.00868429    3.57064131       6
Co    -0.08135080    1.66296318   -1.76221966       7
Cr    -0.06622196    1.70670656    1.72826492       8
Ni     1.70596413   -0.06132192   -1.76704418       9
Ni     1.72560460   -0.02651305    1.76696096      10
Cr    -1.81197029    1.66937897   -0.01556059      11
Cr     1.75011477   -1.76309815    0.00798350      12
Co    -1.74515003   -1.71209368   -0.05583120      13
Cr    -1.74630446   -0.02908285   -1.71097483      14
Co    -1.74944353    0.01215076    1.70257241      15
Cr    -0.03633759   -1.78012519   -1.67266710      16
Ni    -0.01746287   -1.76809193    1.73641466      17
Ni     1.69282724    1.68280543   -0.01018485      18
