          18
Lattice="  24.8920   0.0000   0.0000   0.0000  24.8920   0.0000   0.0000   0.0000  24.8920 " ConfE="      -5935.6188" DelE="          0.0000"
Co    -3.38091126    0.04010947    0.00818555       1
Ni     0.05854312   -0.03241723    3.52217985       2
Ni     3.60541200   -0.03710832   -0.05424421       3
Co     0.09125723   -0.05109904   -3.63828520       4
Co     0.11142214   -3.58692481    0.00814717       5
Cr     0.08984595    3.50102799   -0.02725399       6
Ni    -1.70597678   -1.77331393   -0.01554902       7
Cr    -1.75459297    1.76964269    0.10657591       8
Co     0.05533658   -1.78931806    1.75111107       9
Co     0.02536191    1.75016967    1.72161507      10
Cr    -1.70095013   -0.01142947   -1.88464888      11
Co     1.87098587   -0.01002104    1.72629358      12
Ni     1.83448781   -0.05375765   -1.79260969      13
Ni     0.08024197   -1.79472154   -1.81021823      14
Cr     0.05658150    1.75762243   -1.81017058      15
Cr     1.77999185   -1.83427126    0.08600934      16
Co     1.78798498    1.77597025   -0.03821836      17
Ni     0.00000000    0.00000000    0.00000000      18
          18
Lattice="  24.8920   0.0000   0.0000   0.0000  24.8920   0.0000   0.0000   0.0000  24.8920 " ConfE="      -5931.6454" DelE="          3.9734"
Co    -3.60608443    0.12651647   -0.07693073       1
Ni     0.12589531    0.03688366    3.78207457       2
Ni     3.61668556   -0.06022043   -0.07126788       3
Co     0.08706641   -0.05264320   -3.67674665       4
Co     0.22600033   -3.64686466   -0.12333480       5
Cr     0.08266796    3.47979784   -0.02500155       6
Ni    -1.51651244   -0.95211354   -0.08003838       7
Cr    -1.65952932    1.64958082    0.07120887       8
Co    -0.47950899   -3.23939995    2.08310971       9
Co     0.01730636    1.61642681    1.67847314      10
Cr    -1.77769783    0.07924486   -2.12191025      11
Co     2.03590724    0.08361522    1.76696370      12
Ni     1.80356300   -0.09266751   -1.77790066      13
Ni     0.03279620   -1.78150287   -1.81661440      14
Cr     0.04008146    1.67043666   -1.74368483      15
Cr     1.68225704   -1.82511426    0.15002909      16
Co     1.71737844    1.69852766   -0.05953524      17
Ni    -0.06054355   -0.94940455    1.68445485      18
          18
Lattice="  24.8920   0.0000   0.0000   0.0000  24.8920   0.0000   0.0000   0.0000  24.8920 " ConfE="      -5935.5911" DelE="          0.0277"
Co    -3.36772948    0.02324394    0.01275988       1
Ni     0.06316274   -0.02058856    3.55168745       2
Ni     3.60218796   -0.03575663   -0.05468061       3
Co     0.09052224   -0.05262586   -3.63272450       4
Co     0.10374068   -3.56977802    0.00667993       5
Cr     0.08997615    3.49300750   -0.01950699       6
Ni     0.01934632    0.00313597   -0.01321363       7
Cr    -1.75597472    1.73469678    0.09928862       8
Co    -1.71286832   -3.57209525    1.74178125       9
Co     0.02579617    1.74227515    1.72497562      10
Cr    -1.70065007   -0.02256213   -1.85733917      11
Co     1.87880660    0.00035459    1.72997516      12
Ni     1.84315011   -0.04897428   -1.79922095      13
Ni     0.08606808   -1.79591063   -1.81716880      14
Cr     0.06127834    1.75805945   -1.81365474      15
Cr     1.80083167   -1.84426296    0.04487753      16
Co     1.79470662    1.78681825   -0.03852979      17
Ni     0.01803224   -1.72276999    1.75472958      18
