          18
Lattice="  24.8920   0.0000   0.0000   0.0000  24.8920   0.0000   0.0000   0.0000  24.8920 " ConfE="      -5946.9769" DelE="          0.0000"
Cr    -0.01192848    3.58891622    0.00867772       1
Ni     0.02716531    0.04209896    3.61005357       2
Co     0.01765677    0.08193365   -3.48609707       3
Ni     0.01192576   -3.52639617    0.06084096       4
Cr    -3.52621971    0.05079951    0.04065632       5
Co     3.56579806    0.06407942    0.02077640       6
Ni    -1.70940036    1.79539338    0.02635377       7
Ni     0.02780046    1.81012610    1.84792878       8
Ni    -1.73793427    0.01014091    1.82424224       9
Co    -1.73692971    0.10327782   -1.76084587      10
Ni     1.79854629    0.03461878    1.81250179      11
Co     1.73446232    1.85041431    0.00567625      12
Co     1.76452748    0.08025247   -1.72710167      13
Co     0.05966828   -1.77886325    1.81897789      14
Cr     0.04207870   -1.69472368   -1.71052900      15
Cr    -1.70241003   -1.72560204    0.01189267      16
Co     1.78122200   -1.75801905    0.01988236      17
Co     0.00000000    0.00000000    0.00000000      18
          18
Lattice="  24.8920   0.0000   0.0000   0.0000  24.8920   0.0000   0.0000   0.0000  24.8920 " ConfE="      -5946.2202" DelE="          0.7566"
Cr    -0.02623051    3.48450424   -0.02866439       1
Ni     0.02709553    0.04624609    3.60147575       2
Co     0.02246191    0.09174475   -3.39329255       3
Ni     0.00802307   -3.52698375    0.05232595       4
Cr    -3.62100969    0.04364016    0.06126221       5
Co     3.62559501    0.05902496    0.03733841       6
Ni    -1.87790265    1.81465939    0.09125991       7
Ni     0.02845154    1.78754492    1.80034445       8
Ni    -1.72728636    0.01395776    1.77646117       9
Co    -1.92821164    0.07325690   -1.76899161      10
Ni     1.79461539    0.04660801    1.78073419      11
Co     1.88497003    1.87776203    0.04670124      12
Co     1.96417403    0.02035766   -1.77569648      13
Co     0.04724761   -1.73835467    1.76538773      14
Cr     0.03432268   -1.63722321   -1.67321912      15
Cr    -1.67325890   -1.66469123   -0.01016471      16
Co     1.73827890   -1.69401542    0.00321446      17
Co     0.03094953    0.69395897   -0.69339608      18
          18
Lattice="  24.8920   0.0000   0.0000   0.0000  24.8920   0.0000   0.0000   0.0000  24.8920 " ConfE="      -5947.2480" DelE="         -0.2711"
Cr    -0.02066743    3.63144235    0.02918128       1
Ni     0.02699628    0.04186949    3.61261345       2
Co     0.02073882    0.04890235   -3.52732469       3
Ni     0.01293640   -3.54236408    0.05865471       4
Cr    -3.57253460    0.04286050    0.04971585       5
Co     3.58758253    0.05932552    0.02376140       6
Ni    -1.71146560    1.75624070    0.05475238       7
Ni     0.03248742    1.79403476    1.81269269       8
Ni    -1.71282189   -0.00707391    1.78635616       9
Co    -1.73060005    0.04620082   -1.71794581      10
Ni     1.78419344    0.03099262    1.79310146      11
Co     1.76700246    1.84223213    0.04104900      12
Co     1.75000103    0.05413540   -1.69407543      13
Co     0.05508015   -1.77065272    1.79389016      14
Cr     0.05841947   -1.63255268   -1.65592367      15
Cr    -1.67740286   -1.72052503    0.00967550      16
Co     1.74356290   -1.73038489    0.02118065      17
Co     0.02247144    1.81788038   -1.72232460      18
