          18
Lattice="  24.8920   0.0000   0.0000   0.0000  24.8920   0.0000   0.0000   0.0000  24.8920 " ConfE="      -5949.2675" DelE="          0.0000"
Ni     0.02060243   -3.48018575   -0.00886032       1
Cr     3.35321066   -0.09039335    0.01056531       2
Cr    -0.09727492    3.60592251    0.05766336       3
Cr    -3.57618659    0.04358199   -0.00868803       4
Ni    -0.00152367    0.02531056    3.52847783       5
Co    -0.04791932    0.01853841   -3.54705917       6
Co     0.02809839   -1.76673562    1.78239828       7
Co     0.00581224   -1.73703663   -1.78513368       8
Co     1.75819627   -0.01108380    1.75136313       9
Co     1.73140915    0.00347556   -1.78707984      10
Co    -1.80800714   -1.75888823   -0.00500149      11
Ni     1.73298641    1.81883786   -0.00128101      12
Co    -1.80453116    1.82384967   -0.00450573      13
Cr    -1.71012068    0.00830739    1.66054010      14
Cr    -1.70619083   -0.03030728   -1.66457519      15
Co    -0.00997106    1.80473398    1.75447853      16
Ni    -0.01962974    1.83792349   -1.78489547      17
Co     0.00000000    0.00000000    0.00000000      18
          18
Lattice="  24.8920   0.0000   0.0000   0.0000  24.8920   0.0000   0.0000   0.0000  24.8920 " ConfE="      -5948.7099" DelE="          0.5577"
Ni     0.03534728   -3.46132556   -0.01557308       1
Cr     3.35529996   -0.12144542    0.01102014       2
Cr    -0.07925183    3.61589475    0.05263408       3
Cr    -3.57374194    0.04521961   -0.00963170       4
Ni    -0.02880018    0.03966108    3.59221309       5
Co    -0.07362182    0.03864114   -3.61026157       6
Co    -0.04632994   -1.78080950    1.96028783       7
Co    -0.03624574   -1.77132395   -1.94802048       8
Co     1.76403141    0.05031022    1.93080751       9
Co     1.74028657    0.02022007   -1.95375013      10
Co    -1.70573230   -1.72111131   -0.00704152      11
Ni     1.69060687    1.70178244   -0.00243267      12
Co    -1.79389391    1.81917386   -0.01536991      13
Cr    -1.54285344    0.03886511    1.50524661      14
Cr    -1.63725163   -0.03442136   -1.60930048      15
Co    -0.01576465    1.77252404    1.73921909      16
Ni    -0.02555252    1.79483216   -1.76578755      17
Co     0.91020379   -0.96993039    0.01814134      18
          18
Lattice="  24.8920   0.0000   0.0000   0.0000  24.8920   0.0000   0.0000   0.0000  24.8920 " ConfE="      -5949.3540" DelE="         -0.0865"
Ni    -0.01896276   -3.52638417   -0.01318324       1
Cr     3.43112565   -0.04610519    0.01765900       2
Cr    -0.09714953    3.63858851    0.05667379       3
Cr    -3.61066424    0.05512589   -0.00344509       4
Ni    -0.01508109    0.02822404    3.54557625       5
Co    -0.05904389    0.02534615   -3.55756736       6
Co    -0.01123696   -1.72455709    1.76931127       7
Co    -0.01995867   -1.70216309   -1.76737750       8
Co     1.73290874    0.01449155    1.77378855       9
Co     1.70803115    0.02163048   -1.80402551      10
Co    -1.77501963   -1.72700878   -0.00554646      11
Ni     1.69638085    1.75551696   -0.00370021      12
Co    -1.80328410    1.81395015   -0.00842190      13
Cr    -1.62581982    0.03109675    1.54752551      14
Cr    -1.68548062   -0.01927775   -1.60460519      15
Co    -0.02466503    1.77277222    1.72626565      16
Ni    -0.03456300    1.81678675   -1.75555514      17
Co     1.73775203   -1.70376359   -0.00785079      18
