          18
Lattice="  24.8920   0.0000   0.0000   0.0000  24.8920   0.0000   0.0000   0.0000  24.8920 " ConfE="      -5935.0691" DelE="          0.0000"
Ni    -3.51530155    0.01072473    0.01954898       1
Ni    -0.04419707    0.00245825    3.52346591       2
Ni     0.01824360   -3.52884482   -0.00652129       3
Cr    -0.03366457    3.47361837   -0.05586043       4
Cr     0.01318990    0.07698723   -3.55962607       5
Cr     3.55564762    0.02252001   -0.06682485       6
Ni    -1.74471361   -1.74291643    0.03250670       7
Ni    -0.05065481    1.74502504    1.75881625       8
Co     0.02803408   -1.81212630    1.81346271       9
Ni    -1.75793742    0.00223639   -1.79603654      10
Ni     1.78971991   -0.01554259    1.75234757      11
Co    -1.78097659    1.81464189   -0.01382091      12
Ni     1.76743919    0.00842454   -1.80496940      13
Co     0.05401801   -1.79880035   -1.82022257      14
Co     1.83645704   -1.81905901   -0.05936788      15
Cr     1.72342558    1.75897040   -0.01896719      16
Co     0.00083573    1.79915576   -1.80429938      17
Ni     0.00000000    0.00000000    0.00000000      18
          18
Lattice="  24.8920   0.0000   0.0000   0.0000  24.8920   0.0000   0.0000   0.0000  24.8920 " ConfE="      -5934.2540" DelE="          0.8152"
Ni    -3.48570256   -0.00088531    0.02632521       1
Ni    -0.04658923    0.01553896    3.49349414       2
Ni     0.02314780   -3.59388957   -0.02308396       3
Cr     0.01920325    3.58596491   -0.07420400       4
Cr     0.00243831    0.06910800   -3.56135554       5
Cr     3.55227709    0.03134300   -0.06431101       6
Ni    -1.78056435   -1.90199606   -0.04978129       7
Ni     0.01761848    1.92565556    1.78035839       8
Co     0.09557553   -1.93766252    1.82140507       9
Ni    -1.69406955   -0.00939368   -1.70019404      10
Ni     1.69761839   -0.00529397    1.68843194      11
Co    -1.78399876    1.94547194   -0.07307021      12
Ni     1.72937605    0.00362288   -1.77236770      13
Co     0.05205903   -1.80646861   -1.79533826      14
Co     1.80567872   -1.81029014   -0.06011290      15
Cr     1.64316822    1.72858839   -0.04157207      16
Co     0.00945930    1.79773087   -1.74730197      17
Ni    -1.06331082   -0.00383639    1.08632481      18
          18
Lattice="  24.8920   0.0000   0.0000   0.0000  24.8920   0.0000   0.0000   0.0000  24.8920 " ConfE="      -5934.8120" DelE="          0.2571"
Ni    -3.55423222    0.00211233   -0.01386204       1
Ni    -0.00174793   -0.00121605    3.56309329       2
Ni     0.01715484   -3.54464847   -0.00920928       3
Cr     0.00239595    3.52540844   -0.06197330       4
Cr     0.01498329    0.06826243   -3.57603497       5
Cr     3.57997336    0.02187750   -0.07167466       6
Ni    -1.70321509   -1.73578348   -0.00155070       7
Ni    -0.00203381    1.73405920    1.72143291       8
Co     0.04586684   -1.81066810    1.79668100       9
Ni    -1.71069664   -0.00036747   -1.75450741      10
Ni     1.75673433   -0.02099948    1.70448857      11
Co    -1.75462176    1.80929679   -0.03745147      12
Ni     1.74172641   -0.00345663   -1.77672710      13
Co     0.06584333   -1.80165043   -1.81658636      14
Co     1.83040775   -1.81289106   -0.06208306      15
Cr     1.70029549    1.72441387   -0.05517405      16
Co     0.02080474    1.78447606   -1.76485169      17
Ni    -1.76002474    0.00809485    1.75123109      18
