          18
Lattice="  24.8920   0.0000   0.0000   0.0000  24.8920   0.0000   0.0000   0.0000  24.8920 " ConfE="      -5938.0856" DelE="          0.0000"
Ni    -0.04885004    3.47035722   -0.01489110       1
Cr     3.47895242   -0.04045688    0.05946292       2
Cr     0.03619111   -3.55359982    0.06001363       3
Ni    -3.58330885   -0.03832751   -0.02680408       4
Ni    -0.03201410   -0.04816577   -3.58505844       5
Co    -0.04258071   -0.04427448    3.52057736       6
Ni    -0.03134071    1.72571974   -1.77865266       7
Ni    -0.00807156    1.73389428    1.76228700       8
Cr     1.73956505    0.00411247   -1.76281808       9
Co     1.79916892    0.03632725    1.71293511      10
Co    -1.86824177    1.76922841   -0.01197626      11
Co     1.74610200   -1.81865781    0.01303017      12
Ni    -1.77686837   -1.79397668   -0.00762304      13
Co    -1.80077645   -0.05356898   -1.81033239      14
Co    -1.82003605   -0.05315505    1.78191445      15
Cr     0.01319418   -1.76946803   -1.76532529      16
Cr    -0.04233269   -1.77081361    1.81295586      17
Ni     0.00000000    0.00000000    0.00000000      18
          18
Lattice="  24.8920   0.0000   0.0000   0.0000  24.8920   0.0000   0.0000   0.0000  24.8920 " ConfE="      -5937.3107" DelE="          0.7749"
Ni    -0.03302026    3.42582161   -0.02034079       1
Cr     3.50073468   -0.02818152    0.07495922       2
Cr     0.04022717   -3.55261993    0.06311699       3
Ni    -3.58873959   -0.02846541   -0.02356594       4
Ni    -0.04734040   -0.05256972   -3.64005457       5
Co    -0.07193711   -0.05737792    3.58715411       6
Ni    -0.09490266    1.75695951   -1.89461937       7
Ni    -0.05294004    1.73755074    1.85968042       8
Cr     1.76779009   -0.05571031   -1.96837048       9
Co     1.79691764   -0.08421777    1.94279285      10
Co    -1.83254738    1.74889026   -0.00536498      11
Co     1.72668844   -1.72379142    0.01358413      12
Ni    -1.77689394   -1.76010861    0.00492201      13
Co    -1.74539743   -0.04687307   -1.78460778      14
Co    -1.76534694   -0.05048033    1.77191051      15
Cr    -0.00536283   -1.63584851   -1.61527991      16
Cr    -0.05130566   -1.70588557    1.73105333      17
Ni     1.08085399    0.93932166   -0.03900295      18
          18
Lattice="  24.8920   0.0000   0.0000   0.0000  24.8920   0.0000   0.0000   0.0000  24.8920 " ConfE="      -5937.7942" DelE="          0.2914"
Ni    -0.06866618    3.49944681   -0.01544838       1
Cr     3.53664894   -0.08007781    0.06198816       2
Cr     0.02828691   -3.57620103    0.06238534       3
Ni    -3.60219096   -0.03536196   -0.02399847       4
Ni    -0.03418276   -0.05135491   -3.59070347       5
Co    -0.05889822   -0.05266663    3.55358461       6
Ni    -0.05165767    1.69510863   -1.75532584       7
Ni    -0.03476440    1.68637999    1.74027217       8
Cr     1.70171979   -0.02900643   -1.76166041       9
Co     1.74102695   -0.04688752    1.74833288      10
Co    -1.85421739    1.76516429   -0.00517072      11
Co     1.70371933   -1.75712077    0.00036086      12
Ni    -1.77753891   -1.77350195    0.00407688      13
Co    -1.77029180   -0.05437417   -1.77415285      14
Co    -1.79038700   -0.06171740    1.76424036      15
Cr    -0.01174267   -1.69324520   -1.64293255      16
Cr    -0.07291772   -1.74738505    1.74984119      17
Ni     1.72728489    1.69539870   -0.00650014      18
