          18
Lattice="  24.8920   0.0000   0.0000   0.0000  24.8920   0.0000   0.0000   0.0000  24.8920 " ConfE="      -5936.6594" DelE="          0.0000"
Ni    -3.39515705    0.03414174   -0.15015578       1
Co     0.05621439    0.02875290    3.33881911       2
Cr     0.15607035    0.03588406   -3.81108102       3
Co     3.65852578    0.05912637   -0.12526815       4
Co     0.10484520    3.59322812   -0.17782906       5
Cr     0.13223915   -3.48972366   -0.12373575       6
Co     0.09896755    1.76288406    1.56993583       7
Co     0.10537303   -1.71910927    1.62307278       8
Ni    -1.63808759    0.03296203   -1.97596153       9
Co    -1.62617994    1.78733994   -0.15353166      10
Co    -1.59963889   -1.71337310   -0.11226353      11
Ni     0.12651221    1.75898835   -1.94758394      12
Ni     1.87536003    1.77597472   -0.19532816      13
Co     1.90061175    0.02785246    1.59351595      14
Co     0.14739634   -1.70301846   -1.92169391      15
Cr     1.89167255   -0.00505103   -1.96113046      16
Cr     1.85555180   -1.68760773   -0.12686656      17
Cr     0.00000000    0.00000000    0.00000000      18
          18
Lattice="  24.8920   0.0000   0.0000   0.0000  24.8920   0.0000   0.0000   0.0000  24.8920 " ConfE="      -5935.8494" DelE="          0.8100"
Ni    -3.42014527    0.02223450   -0.13737360       1
Co     0.08295151    0.03377550    3.32704392       2
Cr     0.14243081    0.07601850   -3.73544691       3
Co     3.67892762    0.07224248   -0.12576835       4
Co     0.10234696    3.59243449   -0.24699247       5
Cr     0.17096043   -3.56611531   -0.16595829       6
Co     0.17123736    1.90838618    1.57901713       7
Co     0.18914615   -1.86055301    1.61049274       8
Ni    -1.80327621   -0.01404593   -1.98607419       9
Co    -1.73509336    1.88236189   -0.13824304      10
Co    -1.60905729   -1.79152251   -0.16955644      11
Ni     0.12416239    1.07982597   -1.33591368      12
Ni     1.97598346    1.84675879   -0.16181634      13
Co     1.79435065    0.04299447    1.50598007      14
Co     0.13018550   -1.64955105   -1.88856472      15
Cr     2.05008336    0.00724721   -2.02559870      16
Cr     1.72739417   -1.54138304   -0.17951698      17
Cr    -0.88747081    0.02787615    0.93360332      18
          18
Lattice="  24.8920   0.0000   0.0000   0.0000  24.8920   0.0000   0.0000   0.0000  24.8920 " ConfE="      -5936.8998" DelE="         -0.2404"
Ni    -3.42182764    0.04574152   -0.18516426       1
Co     0.09984473    0.04675955    3.36117156       2
Cr     0.16234765    0.07374461   -3.72635667       3
Co     3.65129083    0.06987974   -0.13582026       4
Co     0.09325004    3.59389413   -0.23357775       5
Cr     0.13630438   -3.50150409   -0.13406835       6
Co     0.13140426    1.82686674    1.59225139       7
Co     0.14205977   -1.73297193    1.59041086       8
Ni    -1.62505916    0.06790448   -1.97661944       9
Co    -1.61940776    1.85662828   -0.24285862      10
Co    -1.62243627   -1.75976456   -0.14224522      11
Ni     0.11581256    0.07299167   -0.24543312      12
Ni     1.86314931    1.80547245   -0.23607035      13
Co     1.87598993    0.04416999    1.57537274      14
Co     0.14333774   -1.75702160   -1.94575421      15
Cr     1.85831784    0.03863543   -1.97768932      16
Cr     1.87971354   -1.70398038   -0.13451308      17
Cr    -1.60055578    0.05811684    1.56160059      18
