          18
Lattice="  24.8920   0.0000   0.0000   0.0000  24.8920   0.0000   0.0000   0.0000  24.8920 " ConfE="      -5938.6815" DelE="          0.0000"
Co    -3.49642146   -0.03063904   -0.01086594       1
Cr     0.07091898   -0.06028032    3.61890239       2
Co     3.59538898   -0.04285821   -0.04074415       3
Cr     0.04158453   -0.03696090   -3.54703659       4
Co     0.03099694    3.59934750   -0.02671877       5
Cr     0.05555221   -3.56398107    0.04133844       6
Ni    -0.01378481    1.70917401    1.74182311       7
Ni     0.02447845   -1.74102008    1.79299444       8
Ni    -1.72161150   -1.76454521    0.04931570       9
Co    -1.77423053    1.78536490   -0.06287202      10
Ni     1.81012091   -0.00919870    1.74306802      11
Ni     1.79676607    1.77775365   -0.04138041      12
Ni     0.02701945   -1.79019770   -1.77762040      13
Co    -1.74777482   -0.01002766   -1.81960916      14
Co     0.03089223    1.74678796   -1.82295412      15
Co     1.82693092   -0.02862081   -1.82543576      16
Cr     1.80236358   -1.78055836   -0.04558571      17
Ni     0.00000000    0.00000000    0.00000000      18
          18
Lattice="  24.8920   0.0000   0.0000   0.0000  24.8920   0.0000   0.0000   0.0000  24.8920 " ConfE="      -5934.2507" DelE="          4.4308"
Co    -3.64497343   -0.11353625   -0.10575984       1
Cr     0.15469076   -0.11950260    3.70223283       2
Co     3.64583834   -0.05232562   -0.04560614       3
Cr     0.07455836   -0.05822810   -3.61762489       4
Co    -0.00697627    3.65232496    0.03851620       5
Cr     0.04571059   -3.55036023    0.05404880       6
Ni     0.12500976    1.48221290    1.74799889       7
Ni     0.03384504   -1.69470391    1.76859383       8
Ni    -1.68660148   -1.65255503    0.03071405       9
Co    -1.77507271    2.79200093    1.61350554      10
Ni     1.89505055   -0.07452731    1.73676569      11
Ni     1.78652353    1.74278348   -0.04225657      12
Ni     0.04863055   -1.75161228   -1.75700809      13
Co    -1.76919345   -0.12058822   -1.98455446      14
Co     0.04740488    1.67887395   -1.82121976      15
Co     1.82990978   -0.03828730   -1.79987367      16
Cr     1.79075986   -1.77000935   -0.04739309      17
Ni    -1.60123738    1.23067250   -0.06829610      18
          18
Lattice="  24.8920   0.0000   0.0000   0.0000  24.8920   0.0000   0.0000   0.0000  24.8920 " ConfE="      -5934.8082" DelE="          3.8733"
Co    -3.55318181   -0.06527758   -0.03402446       1
Cr     0.10565044   -0.08575882    3.66485886       2
Co     3.64088271   -0.06878421   -0.02937937       3
Cr     0.06715063   -0.05354062   -3.58732543       4
Co     0.06394002    3.35925256   -0.06305823       5
Cr     0.04771239   -3.56719215    0.05443240       6
Ni     0.00414473    1.59853893    1.73506619       7
Ni     0.02710223   -1.72406128    1.77724498       8
Ni    -1.68896624   -1.72545054    0.04766295       9
Co    -1.75700567    3.49419032    1.79417913      10
Ni     1.81063408   -0.04096266    1.71752037      11
Ni     1.82672571    1.70503975   -0.04299032      12
Ni     0.04408769   -1.76242819   -1.75089089      13
Co    -1.75017511   -0.05659691   -1.84658745      14
Co     0.04643442    1.62885034   -1.83161096      15
Co     1.84921675   -0.05779820   -1.80957184      16
Cr     1.78624887   -1.77663921   -0.03980405      17
Ni    -1.70490593    1.60470566   -0.01775811      18
