          18
Lattice="  24.8920   0.0000   0.0000   0.0000  24.8920   0.0000   0.0000   0.0000  24.8920 " ConfE="      -5929.5942" DelE="          0.0000"
Co    -0.08680903    0.03445428    3.55361777       1
Cr     3.42572303   -0.03714396   -0.03710824       2
Ni    -0.04153035    3.55622005    0.01283459       3
Co    -0.00891682   -3.60183468   -0.02779541       4
Cr    -3.59632441    0.11804617   -0.04004213       5
Co    -0.01677057   -0.03695215   -3.57063778       6
Ni    -0.01212867    1.76092336    1.78335631       7
Ni     1.71282028    1.75475922    0.01591955       8
Ni    -0.02849140   -1.74869481    1.76910145       9
Co     1.72515404   -1.81731763   -0.04973531      10
Ni    -1.83614306    0.01691597    1.77062540      11
Ni    -1.80379239   -1.75390407   -0.02010341      12
Ni    -1.78266303    0.00811619   -1.77714146      13
Co     1.77301179   -0.04725777   -1.85668609      14
Co    -1.85461190    1.79168465    0.00260058      15
Co    -0.01357730    1.76787741   -1.80201352      16
Co    -0.00605764   -1.83676292   -1.83213921      17
Ni     0.00000000    0.00000000    0.00000000      18
          18
Lattice="  24.8920   0.0000   0.0000   0.0000  24.8920   0.0000   0.0000   0.0000  24.8920 " ConfE="      -5928.9637" DelE="          0.6305"
Co    -0.06965421    0.03673694    3.53086099       1
Cr     3.38433908   -0.02748595   -0.04059972       2
Ni    -0.06326570    3.62306793   -0.01440270       3
Co    -0.03692599   -3.66720493   -0.04159772       4
Cr    -3.58883250    0.11404752   -0.01991406       5
Co    -0.01244156   -0.03442482   -3.56730226       6
Ni    -0.06529766    1.90330617    1.78329824       7
Ni     1.71558068    1.92809548   -0.04246185       8
Ni    -0.10047700   -1.90517729    1.80201481       9
Co     1.73336505   -1.99472174   -0.11954707      10
Ni    -1.74255887    0.02657761    1.72501952      11
Ni    -1.75818837   -1.74079222   -0.02283542      12
Ni    -1.73640147    0.01056843   -1.73099130      13
Co     1.73167378   -0.05003029   -1.75624376      14
Co    -1.83419932    1.79520313   -0.00422977      15
Co    -0.00829911    1.75993995   -1.77790823      16
Co    -0.00842313   -1.84399569   -1.81993443      17
Ni     0.98530191   -0.03072381    0.94230403      18
          18
Lattice="  24.8920   0.0000   0.0000   0.0000  24.8920   0.0000   0.0000   0.0000  24.8920 " ConfE="      -5929.5960" DelE="         -0.0017"
Co    -0.10617256    0.03181732    3.57100170       1
Cr     3.47705629   -0.02885028   -0.08195227       2
Ni    -0.04852607    3.57264022    0.00329665       3
Co    -0.01823536   -3.63041327   -0.03663615       4
Cr    -3.61090397    0.12550286   -0.04140549       5
Co    -0.02796789   -0.02926290   -3.58240892       6
Ni    -0.05508977    1.76827126    1.74586625       7
Ni     1.67208993    1.74045395   -0.02205695       8
Ni    -0.05841005   -1.75603951    1.73751631       9
Co     1.69497930   -1.81009457   -0.06248844      10
Ni    -1.81159107    0.02042687    1.74488330      11
Ni    -1.77827035   -1.72323082   -0.03009179      12
Ni    -1.75912622    0.01159675   -1.74936367      13
Co     1.74444962   -0.05383021   -1.80122438      14
Co    -1.85802389    1.78404983   -0.00704030      15
Co    -0.02055983    1.74804577   -1.79091083      16
Co    -0.01360918   -1.82611898   -1.81958318      17
Ni     1.68371821    0.00184789    1.72884505      18
