          18
Lattice="  24.8920   0.0000   0.0000   0.0000  24.8920   0.0000   0.0000   0.0000  24.8920 " ConfE="      -5924.4891" DelE="          0.0000"
Ni     0.04734620   -0.00156431   -3.48929572       1
Ni     3.60018060   -0.02891232    0.04545757       2
Ni     0.06042747   -3.59781081    0.03729773       3
Ni     0.05751216   -0.04349456    3.59644550       4
Co     0.02060322    3.47720696    0.05313959       5
Cr    -3.42617047   -0.02114535    0.01367108       6
Ni     1.80903872   -0.05543593   -1.71809173       7
Ni     1.75953751    1.71857945    0.02272785       8
Cr    -1.65847648    0.00289361   -1.71382829       9
Cr    -1.65022911    1.74882197    0.00422496      10
Ni    -1.70714366   -1.82828031    0.02549082      11
Ni    -1.70990308   -0.03808660    1.83021734      12
Ni     0.07506095   -1.84524678   -1.73610582      13
Ni     1.82439217   -0.03411846    1.81591470      14
Cr     0.04378999    1.74012817    1.84363644      15
Cr     1.83023651   -1.84568631    0.09438314      16
Co     0.05174746   -1.82476729    1.81535399      17
Co     0.00000000    0.00000000    0.00000000      18
          18
Lattice="  24.8920   0.0000   0.0000   0.0000  24.8920   0.0000   0.0000   0.0000  24.8920 " ConfE="      -5923.9178" DelE="          0.5713"
Ni     0.04129222   -0.00327015   -3.46455206       1
Ni     3.65188741   -0.04548597    0.05852289       2
Ni     0.06038432   -3.60513601    0.03520362       3
Ni     0.06079689   -0.03225489    3.59131095       4
Co     0.03664390    3.43843578    0.05629201       5
Cr    -3.50197201   -0.07121542    0.02443178       6
Ni     1.89479853   -0.09416375   -1.70198273       7
Ni     1.87693297    1.71833232    0.05897670       8
Cr    -1.86917954   -0.14345007   -1.81405964       9
Cr    -1.86499669    1.82551669    0.15218595      10
Ni    -1.68651932   -1.79622268    0.01991497      11
Ni    -1.69013264   -0.04054086    1.78570494      12
Ni     0.07706420   -1.79347179   -1.70804756      13
Ni     1.81409683   -0.03390881    1.78479224      14
Cr     0.03871831    1.68655575    1.71094706      15
Cr     1.81382938   -1.83296154    0.09043271      16
Co     0.06912400   -1.80631479    1.78678943      17
Co    -0.14480076    0.95652438   -0.93214159      18
          18
Lattice="  24.8920   0.0000   0.0000   0.0000  24.8920   0.0000   0.0000   0.0000  24.8920 " ConfE="      -5924.1497" DelE="          0.3394"
Ni     0.04768959   -0.03175201   -3.52721367       1
Ni     3.62195970   -0.04283033    0.05710821       2
Ni     0.06021314   -3.61747576    0.03685106       3
Ni     0.06156083   -0.04469745    3.60604835       4
Co     0.02343793    3.52328667    0.07261479       5
Cr    -3.48792860   -0.05194561    0.02142739       6
Ni     1.80562719   -0.08684927   -1.67895312       7
Ni     1.75704623    1.68902405    0.05602788       8
Cr    -1.69124072   -0.04731655   -1.69947384       9
Cr    -1.68895271    1.71963063    0.04412650      10
Ni    -1.67349275   -1.79286363    0.02654390      11
Ni    -1.67613432   -0.03873024    1.79584218      12
Ni     0.07916710   -1.81655743   -1.71051591      13
Ni     1.81537976   -0.04626884    1.80640621      14
Cr     0.03813277    1.71781719    1.79394992      15
Cr     1.83409942   -1.86896847    0.11036482      16
Co     0.07813185   -1.81717066    1.79169932      17
Co    -0.05543353    1.60694095   -1.61411622      18
