          18
Lattice="  24.8920   0.0000   0.0000   0.0000  24.8920   0.0000   0.0000   0.0000  24.8920 " ConfE="      -5924.4753" DelE="          0.0000"
Ni     0.03755793    0.00618436    3.51874645       1
Ni     0.01643538    3.47726031   -0.00328199       2
Co     0.05764047   -0.04153083   -3.61995276       3
Cr     0.10680770   -3.56964319   -0.03483241       4
Co     3.54368842   -0.00740424   -0.03993393       5
Ni    -3.51956434   -0.01086152   -0.03369559       6
Ni     1.76463177    0.02558234    1.75419985       7
Co    -1.73726736   -0.11397509    1.78771887       8
Ni     1.76395744    1.76275117   -0.01874617       9
Ni    -1.73825744    1.71891712    0.01011355      10
Cr     0.05127571   -1.80594029    1.76594465      11
Cr     0.05447132    1.71573768   -1.84655588      12
Co     0.01846084   -1.79178653   -1.82738605      13
Cr     1.78323870   -1.75602040   -0.08521258      14
Ni    -1.72080185   -1.82865410   -0.02558515      15
Co     1.78260417   -0.01761342   -1.81427462      16
Ni    -1.75569364   -0.00614768   -1.82172626      17
Ni     0.00000000    0.00000000    0.00000000      18
          18
Lattice="  24.8920   0.0000   0.0000   0.0000  24.8920   0.0000   0.0000   0.0000  24.8920 " ConfE="      -5923.5514" DelE="          0.9239"
Ni     0.05362603    0.01131127    3.50001156       1
Ni     0.01222693    3.44979715   -0.00805301       2
Co     0.05927005   -0.03368177   -3.61108880       3
Cr     0.11375885   -3.56604135   -0.01779002       4
Co     3.59307288   -0.01513294   -0.05033273       5
Ni    -3.58381095   -0.03093112   -0.03512237       6
Ni     1.89473734   -0.01183185    1.77048718       7
Co    -1.84536242   -0.17563112    1.80486574       8
Ni     1.90173280    1.79721200   -0.05075648       9
Ni    -1.91219217    1.73268093   -0.07067099      10
Cr     0.05042044   -1.66462216    1.69095920      11
Cr     0.03737751    1.63864251   -1.71057458      12
Co     0.02680615   -1.75277947   -1.76652305      13
Cr     1.72246480   -1.68039493   -0.07505962      14
Ni    -1.70767788   -1.79255346   -0.01467000      15
Co     1.74118337   -0.00133874   -1.74993713      16
Ni    -1.74833295   -0.00918851   -1.78354846      17
Ni    -0.02357722    1.13631060    1.12212364      18
          18
Lattice="  24.8920   0.0000   0.0000   0.0000  24.8920   0.0000   0.0000   0.0000  24.8920 " ConfE="      -5924.0711" DelE="          0.4042"
Ni     0.04263940   -0.01067542    3.55651176       1
Ni     0.01403893    3.51364140   -0.03901932       2
Co     0.05744735   -0.04981505   -3.64058550       3
Cr     0.11222270   -3.58941372   -0.02856249       4
Co     3.56445180   -0.01122503   -0.04463619       5
Ni    -3.52608571   -0.01562282   -0.03769201       6
Ni     1.76565692   -0.00736799    1.72529447       7
Co    -1.69901795   -0.12481273    1.75823912       8
Ni     1.75206889    1.72839544   -0.05002140       9
Ni    -1.70846814    1.67116426   -0.03784685      10
Cr     0.03531164   -1.72623363    1.71742693      11
Cr     0.05533420    1.65817700   -1.80222982      12
Co     0.03377660   -1.76197300   -1.78001655      13
Cr     1.73107925   -1.73690165   -0.09266289      14
Ni    -1.69063769   -1.80583420   -0.02745530      15
Co     1.74255958   -0.02147187   -1.78201172      16
Ni    -1.73078042   -0.01641237   -1.81256290      17
Ni     0.00302385    1.72682093    1.70528392      18
