          18
Lattice="  24.8920   0.0000   0.0000   0.0000  24.8920   0.0000   0.0000   0.0000  24.8920 " ConfE="      -5940.4927" DelE="          0.0000"
Cr    -0.00641058   -3.59307643   -0.08120441       1
Cr     0.07573412   -0.08511435   -3.42967101       2
Cr     0.05345120    3.55190110    0.00257980       3
Co     0.00917950    0.02648676    3.61292015       4
Co    -3.55903498   -0.01727702   -0.02596143       5
Cr     3.52893880    0.02639999   -0.02923217       6
Ni    -1.71472097   -1.78283491   -0.02646528       7
Ni     1.74294501   -1.78174274   -0.04445576       8
Ni    -1.74481442   -0.01505632   -1.76627962       9
Co     1.77305633   -0.00117447   -1.78979952      10
Ni    -0.01379018   -1.76148247    1.78450015      11
Co     0.01548113    1.82996745   -1.79790164      12
Co     0.02392797    1.77754871    1.82047918      13
Cr    -1.81573797   -0.02690472    1.78890935      14
Ni     1.77712858   -0.00717382    1.79585624      15
Ni    -1.75743078    1.78080257    0.01866022      16
Ni     1.77203875    1.77421805    0.02348045      17
Ni     0.00000000    0.00000000    0.00000000      18
          18
Lattice="  24.8920   0.0000   0.0000   0.0000  24.8920   0.0000   0.0000   0.0000  24.8920 " ConfE="      -5939.9153" DelE="          0.5774"
Cr    -0.00725700   -3.51768018   -0.11356824       1
Cr     0.07468754   -0.12519859   -3.34199864       2
Cr     0.05208106    3.56165282   -0.00750702       3
Co     0.01604682    0.01830191    3.60594146       4
Co    -3.62527398    0.00488368   -0.01686953       5
Cr     3.61063290    0.04969946    0.00352228       6
Ni    -1.88916821   -1.79380934    0.03085542       7
Ni     1.96541196   -1.82634377    0.01677230       8
Ni    -1.88752350    0.01631893   -1.77885203       9
Co     1.98896405    0.06839602   -1.80650146      10
Ni    -0.00107499   -1.74158452    1.70636214      11
Co     0.01639732    1.76281610   -1.77426723      12
Co     0.01455300    1.72998910    1.77277192      13
Cr    -1.78843013   -0.02518661    1.74332413      14
Ni     1.77803652   -0.01703749    1.75770694      15
Ni    -1.75205554    1.75219673    0.01581874      16
Ni     1.75372829    1.74112943    0.01643673      17
Ni     0.06184086   -0.64259890   -0.63298431      18
          18
Lattice="  24.8920   0.0000   0.0000   0.0000  24.8920   0.0000   0.0000   0.0000  24.8920 " ConfE="      -5940.7736" DelE="         -0.2809"
Cr    -0.01165547   -3.64805793    0.00264818       1
Cr     0.06248083    0.04493947   -3.52771018       2
Cr     0.05155023    3.56046507    0.00706157       3
Co     0.01017625    0.02649426    3.63686416       4
Co    -3.58236298   -0.00730392   -0.01949602       5
Cr     3.56374335    0.03670630   -0.00983290       6
Ni    -1.72069463   -1.74176862    0.02705928       7
Ni     1.76667827   -1.75834585    0.00519649       8
Ni    -1.73277342    0.01013966   -1.73751739       9
Co     1.79729394    0.03106651   -1.76298627      10
Ni    -0.01260233   -1.73083130    1.76424991      11
Co     0.02088616    1.78981087   -1.77189989      12
Co     0.01245905    1.74329095    1.80506458      13
Cr    -1.80223646   -0.01786102    1.79731775      14
Ni     1.75932995   -0.00326845    1.78837157      15
Ni    -1.72428732    1.75052794    0.03411666      16
Ni     1.73880932    1.74402276    0.03421368      17
Ni     0.02524437   -1.75007183   -1.73028034      18
