          18
Lattice="  24.8920   0.0000   0.0000   0.0000  24.8920   0.0000   0.0000   0.0000  24.8920 " ConfE="      -5946.8813" DelE="          0.0000"
Co    -0.10241418    0.03901783    3.44289358       1
Ni     3.38251663    0.02687945   -0.03804250       2
Cr    -0.18313148    0.04211718   -3.63090884       3
Cr    -3.76023046    0.05652447   -0.08371329       4
Co    -0.12488570   -3.50537057   -0.08924846       5
Cr    -0.13159959    3.66098742   -0.05780693       6
Ni    -0.10377149   -1.71302955    1.71721337       7
Ni    -0.08675483    1.80024830    1.71325725       8
Co     1.62757537   -1.71611816   -0.07028349       9
Cr     1.70373094    1.80063882   -0.01466305      10
Cr    -1.92703783    0.06681519    1.68214670      11
Cr     1.60944421    0.04334124   -1.88146152      12
Ni    -1.92539830    0.06199626   -1.80187586      13
Co    -1.90637985   -1.71869805   -0.05546164      14
Cr    -1.90974618    1.86264143   -0.04569829      15
Cr    -0.22064301   -1.75511868   -1.82640779      16
Co    -0.13587659    1.80526090   -1.79332286      17
Cr     0.00000000    0.00000000    0.00000000      18
          18
Lattice="  24.8920   0.0000   0.0000   0.0000  24.8920   0.0000   0.0000   0.0000  24.8920 " ConfE="      -5946.1208" DelE="          0.7605"
Co    -0.10879768    0.02873701    3.35833812       1
Ni     3.29647666    0.02707947   -0.04867778       2
Cr    -0.23312098    0.03941600   -3.52200901       3
Cr    -3.65145790    0.03008475   -0.09230457       4
Co    -0.14967595   -3.62353004   -0.08399049       5
Cr    -0.14094448    3.77948573   -0.04452791       6
Ni    -0.16787185   -1.88077884    1.72715432       7
Ni    -0.13417009    1.94478210    1.73620335       8
Co     1.62143652   -1.89912354   -0.12651622       9
Cr     1.65185578    1.95395074   -0.07930859      10
Cr    -1.85342950    0.04330406    1.63188556      11
Cr     1.46764535    0.02082473   -1.80026326      12
Ni    -1.22188071    0.03149959   -1.07264178      13
Co    -1.93401300   -1.92256369    0.00922290      14
Cr    -1.84284582    2.00217424    0.00978944      15
Cr    -0.23700495   -1.95700554   -1.79913904      16
Co    -0.10508033    1.99295460   -1.81404432      17
Cr     0.77621080   -0.01414629    0.77533801      18
          18
Lattice="  24.8920   0.0000   0.0000   0.0000  24.8920   0.0000   0.0000   0.0000  24.8920 " ConfE="      -5946.9035" DelE="         -0.0221"
Co    -0.12276164    0.04028619    3.46151353       1
Ni     3.40974283    0.02405856   -0.07908939       2
Cr    -0.23412845    0.04086666   -3.50000922       3
Cr    -3.65552474    0.03810038   -0.12395665       4
Co    -0.14248788   -3.58497771   -0.08052394       5
Cr    -0.13989756    3.72683374   -0.03671006       6
Ni    -0.15292520   -1.74223754    1.67912054       7
Ni    -0.13030719    1.81802604    1.67124415       8
Co     1.56772978   -1.73227546   -0.10833779       9
Cr     1.62108402    1.82339183   -0.08836752      10
Cr    -1.82852181    0.04331115    1.60482166      11
Cr     1.42405190    0.00267182   -1.67753004      12
Ni    -1.18971492    0.02612408   -1.04290283      13
Co    -1.96562331   -1.92662117   -0.01159919      14
Cr    -1.93623087    2.00092405   -0.02410974      15
Cr    -0.27387316   -1.97538147   -1.85325693      16
Co    -0.13590095    2.00177429   -1.83066171      17
Cr     1.52598688    0.00148906    1.53709750      18
