          18
Lattice="  24.8920   0.0000   0.0000   0.0000  24.8920   0.0000   0.0000   0.0000  24.8920 " ConfE="      -5940.6379" DelE="          0.0000"
Co    -3.56349962   -0.12894317   -0.01286055       1
Co     0.02024453   -0.07306981    3.57479876       2
Cr     3.57441425   -0.07701417   -0.04162905       3
Cr     0.05355332   -0.06898969   -3.53780397       4
Cr    -0.03013538   -3.74724199   -0.01475443       5
Cr     0.04635221    3.40099109   -0.02058473       6
Ni    -1.75928043   -1.83143871    0.05068454       7
Ni    -1.77706366    1.64707476    0.02290898       8
Ni    -0.03418531   -1.81973491    1.74782063       9
Co     0.01686632    1.63159912    1.76206548      10
Ni    -1.77404028   -0.10228933   -1.79534158      11
Ni     1.80953518   -0.11088133    1.77644073      12
Co     1.80140865   -0.07897145   -1.79342442      13
Ni     0.00034703   -1.87168445   -1.75097672      14
Co     0.01303804    1.69351253   -1.80547907      15
Ni     1.76659860   -1.87137720   -0.01477760      16
Ni     1.80733644    1.67029718    0.00336070      17
Cr     0.00000000    0.00000000    0.00000000      18
          18
Lattice="  24.8920   0.0000   0.0000   0.0000  24.8920   0.0000   0.0000   0.0000  24.8920 " ConfE="      -5939.7718" DelE="          0.8661"
Co    -3.48136810   -0.13960210    0.01390367       1
Co    -0.02183358   -0.08025636    3.51923294       2
Cr     3.52781655   -0.07694837   -0.02790772       3
Cr     0.04558261   -0.07478732   -3.53509507       4
Cr     0.00487870   -3.83265364   -0.03841486       5
Cr     0.05751439    3.51387331   -0.04389431       6
Ni    -1.75596278   -1.98147700   -0.00386077       7
Ni    -1.79797663    1.81255083   -0.05181236       8
Ni    -0.01117568   -1.96220511    1.77254875       9
Co     0.03867649    1.77964457    1.82999957      10
Ni    -1.72886173   -0.09897691   -1.72792924      11
Ni     1.72594197   -0.12131644    1.76312451      12
Co     1.74667742   -0.08381538   -1.75772311      13
Ni    -0.00453433   -1.87208537   -1.72504760      14
Co    -0.00426886    1.68973039   -1.78464184      15
Ni     1.72791807   -1.87971537   -0.00185581      16
Ni     1.67989070    1.62442539    0.02882166      17
Cr    -0.77700044   -0.01159952    0.82030960      18
          18
Lattice="  24.8920   0.0000   0.0000   0.0000  24.8920   0.0000   0.0000   0.0000  24.8920 " ConfE="      -5940.7736" DelE="         -0.1357"
Co    -3.58766236   -0.11991632   -0.04755710       1
Co     0.00487686   -0.08611815    3.60880309       2
Cr     3.55844397   -0.07590610   -0.03789398       3
Cr     0.05718145   -0.06767294   -3.55577125       4
Cr    -0.01695486   -3.76067034   -0.02541290       5
Cr     0.04625085    3.44785266   -0.02099950       6
Ni    -1.72599402   -1.85438103   -0.00100180       7
Ni    -1.72958671    1.63791554    0.00605558       8
Ni    -0.01790172   -1.84344370    1.73618883       9
Co     0.00715967    1.63067855    1.77700351      10
Ni    -1.73807280   -0.10247275   -1.76557846      11
Ni     1.75403056   -0.11588086    1.76031049      12
Co     1.79199455   -0.08154590   -1.79104734      13
Ni     0.01994499   -1.86268424   -1.75834142      14
Co     0.01558677    1.67719847   -1.79996096      15
Ni     1.76137888   -1.87095825   -0.02286458      16
Ni     1.73350994    1.63141036    0.00615261      17
Cr    -1.80753584   -0.13047343    1.76925667      18
