          18
Lattice="  24.8920   0.0000   0.0000   0.0000  24.8920   0.0000   0.0000   0.0000  24.8920 " ConfE="      -5926.3711" DelE="          0.0000"
Cr    -0.00062598   -0.06104664   -3.22409260       1
Co     3.42201318   -0.09781994    0.18324016       2
Cr    -0.09964616   -0.10699650    3.82558809       3
Co    -3.67769053   -0.03629788    0.18775916       4
Co    -0.08514702   -3.64653563    0.20155090       5
Cr    -0.07396075    3.46343711    0.16525264       6
Cr    -0.03426461   -1.84097868   -1.56444860       7
Co    -0.09625153    1.70611285   -1.61718329       8
Cr     1.68423998   -1.81352524    0.18942293       9
Co     1.67362736    1.65970425    0.16243081      10
Co    -1.93502083   -0.07069447   -1.58735720      11
Cr     1.69127833   -0.06218418    2.01145713      12
Cr    -1.91578927   -0.05517045    1.95343243      13
Cr    -1.89870441   -1.82402602    0.19970563      14
Cr    -1.83898944    1.72124252    0.17228714      15
Cr    -0.11159773   -1.86997376    1.93665844      16
Ni    -0.08370275    1.69910654    2.00658324      17
Cr     0.00000000    0.00000000    0.00000000      18
          18
Lattice="  24.8920   0.0000   0.0000   0.0000  24.8920   0.0000   0.0000   0.0000  24.8920 " ConfE="      -5926.0054" DelE="          0.3657"
Cr    -0.08234508   -0.08121159   -3.29761805       1
Co     3.40796854   -0.05565811    0.27433426       2
Cr    -0.11669316   -0.12803427    3.78420781       3
Co    -3.67412736   -0.03539273    0.16833040       4
Co    -0.08231462   -3.72205708    0.19504525       5
Cr    -0.08996313    3.56198177    0.20357524       6
Cr    -0.06631508   -1.99123791   -1.49218882       7
Co    -0.12450906    1.80807892   -1.57855610       8
Cr     1.86899225   -2.02099082    0.24052937       9
Co     1.67490327    1.81874610    0.25890211      10
Co    -1.79040039   -0.08309767   -1.51595800      11
Cr     1.63702613   -0.06401823    1.99609135      12
Cr    -1.82655882   -0.07144214    1.87318342      13
Cr    -1.91559580   -1.80698209    0.13713467      14
Cr    -1.73725782    1.66595444    0.14368006      15
Cr    -0.06236179   -1.80532170    1.64931286      16
Ni    -0.08236499    1.71571433    1.99452615      17
Cr     0.90650267   -0.06804446   -0.73696987      18
          18
Lattice="  24.8920   0.0000   0.0000   0.0000  24.8920   0.0000   0.0000   0.0000  24.8920 " ConfE="      -5926.3472" DelE="          0.0239"
Cr    -0.10484903   -0.06728033   -3.30376586       1
Co     3.50791380   -0.08471631    0.22641105       2
Cr    -0.10533839   -0.11050206    3.79353388       3
Co    -3.70465439   -0.03027973    0.18666045       4
Co    -0.09749000   -3.69841987    0.20140035       5
Cr    -0.09061237    3.51464957    0.17381753       6
Cr    -0.12392455   -1.83393180   -1.44341034       7
Co    -0.13361226    1.67798923   -1.54472407       8
Cr     1.73222127   -1.89725611    0.20792912       9
Co     1.63162699    1.67730719    0.22715701      10
Co    -1.88009686   -0.07832569   -1.51935886      11
Cr     1.59690967   -0.08497334    1.85046655      12
Cr    -1.81026240   -0.05219440    1.84677003      13
Cr    -1.94915466   -1.83099671    0.18190730      14
Cr    -1.81353792    1.71697969    0.15137590      15
Cr    -0.12140545   -1.86641912    1.78304655      16
Ni    -0.10500747    1.72480699    2.00737454      17
Cr     1.54691735   -0.05501498   -1.35601205      18
