          18
Lattice="  24.8920   0.0000   0.0000   0.0000  24.8920   0.0000   0.0000   0.0000  24.8920 " ConfE="      -5946.2038" DelE="          0.0000"
Ni    -3.46950207    0.02465631    0.03017642       1
Ni     0.03653817    0.00941786    3.61003692       2
Ni     3.59649276    0.01794067    0.06947849       3
Cr    -0.00940287    0.08678128   -3.39799345       4
Cr     0.03779816    3.54400037    0.00987432       5
Cr     0.05851132   -3.49387950    0.03393997       6
Ni    -1.73220502    1.76796913    0.04607382       7
Co    -1.73201575   -1.76672170    0.01698043       8
Co     0.03070120    1.75964493   -1.71793733       9
Cr    -0.03784182   -1.66960956   -1.68430660      10
Ni     0.01045532    1.76122680    1.82146670      11
Ni     0.03829322   -1.73229558    1.82997790      12
Cr    -1.78932536   -0.05634111    1.84036825      13
Cr     1.79799012    1.77605426    0.05069787      14
Co     1.80179812   -1.74731815    0.03784689      15
Co     1.82712609    0.02766201   -1.71081994      16
Cr     1.81224284    0.05312427    1.79326118      17
Co     0.00000000    0.00000000    0.00000000      18
          18
Lattice="  24.8920   0.0000   0.0000   0.0000  24.8920   0.0000   0.0000   0.0000  24.8920 " ConfE="      -5945.3470" DelE="          0.8568"
Ni    -3.44685465    0.03325710    0.03135916       1
Ni     0.03535348    0.01213145    3.60567783       2
Ni     3.58930452    0.01778038    0.06322112       3
Cr     0.03693101    0.09936662   -3.43543484       4
Cr     0.04327188    3.64118210    0.03451217       5
Cr     0.07295813   -3.60074123    0.11227313       6
Ni    -1.73350667    1.87057710    0.07365208       7
Co    -1.74360774   -1.89966818    0.09711610       8
Co     0.08240982    1.94438426   -1.67778697       9
Cr     0.11817241   -1.89387500   -1.68341695      10
Ni     0.01992218    1.75851995    1.77774190      11
Ni     0.04972832   -1.71253184    1.78476964      12
Cr    -1.70211218   -0.04806476    1.72916131      13
Cr     1.75758072    1.76357432    0.03595533      14
Co     1.77640456   -1.74299431    0.04129402      15
Co     1.66907300    0.03833172   -1.62367756      16
Cr     1.77256008    0.06453338    1.75238738      17
Co    -0.99322415   -0.07321174   -1.10428745      18
          18
Lattice="  24.8920   0.0000   0.0000   0.0000  24.8920   0.0000   0.0000   0.0000  24.8920 " ConfE="      -5945.8849" DelE="          0.3189"
Ni    -3.52497351    0.03038220    0.06039043       1
Ni     0.03483137    0.00994790    3.62131335       2
Ni     3.61235178    0.01990263    0.06662709       3
Cr     0.06912156    0.06279419   -3.47465663       4
Cr     0.03285547    3.57896079    0.01830617       5
Cr     0.06497683   -3.52739950    0.05984870       6
Ni    -1.71291558    1.75260087    0.06532221       7
Co    -1.70962928   -1.74686849    0.05865477       8
Co     0.06704082    1.77608859   -1.66931870       9
Cr    -0.00005131   -1.66933380   -1.65397619      10
Ni     0.01881446    1.72980661    1.79019455      11
Ni     0.04356619   -1.69076152    1.80239952      12
Cr    -1.77581431   -0.05742528    1.80409390      13
Cr     1.78535098    1.75996153    0.05197472      14
Co     1.77118424   -1.71389904    0.04454649      15
Co     1.75639673    0.03041753   -1.64842829      16
Cr     1.80353297    0.06440429    1.76809913      17
Co    -1.67336920   -0.00927383   -1.69733866      18
