          18
Lattice="  24.8920   0.0000   0.0000   0.0000  24.8920   0.0000   0.0000   0.0000  24.8920 " ConfE="      -5927.8460" DelE="          0.0000"
Cr    -0.01102293   -0.03114764   -3.44718988       1
Ni     3.49308755   -0.02086149   -0.00435780       2
Cr     0.01601067   -0.01312509    3.62003012       3
Cr    -3.58349693   -0.01447823    0.04963983       4
Ni    -0.01924027   -3.61910032    0.04813442       5
Cr    -0.01175337    3.50316568    0.04008634       6
Co    -0.03423414   -1.79109635   -1.71679533       7
Cr     0.21938202    1.62025155   -1.75510753       8
Cr     1.73845998   -1.78898074   -0.03158340       9
Co     1.75554868    1.74161569    0.02825115      10
Cr    -1.80975809   -0.02581300   -1.72440384      11
Co     1.77024175   -0.02892504    1.82553507      12
Cr    -1.76986192    0.02955656    1.82516690      13
Cr    -1.77876446   -1.82857710    0.04763465      14
Cr    -1.79659302    1.76811067    0.03771912      15
Cr     0.00821388   -1.75588364    1.77217828      16
Cr     0.02189428    1.73872127    1.82868085      17
Co     0.00000000    0.00000000    0.00000000      18
          18
Lattice="  24.8920   0.0000   0.0000   0.0000  24.8920   0.0000   0.0000   0.0000  24.8920 " ConfE="      -5926.8680" DelE="          0.9781"
Cr    -0.00651002   -0.02270310   -3.43244177       1
Ni     3.52604740   -0.02817494    0.02380512       2
Cr     0.01241235    0.01606310    3.60457597       3
Cr    -3.61681768   -0.01247462    0.01587474       4
Ni    -0.02701301   -3.66457689    0.08093121       5
Cr    -0.02344110    3.63638346    0.08573555       6
Co    -0.09859212   -1.94512962   -1.72655377       7
Cr     0.04370057    1.84619517   -1.60193767       8
Cr     1.78766610   -1.92383335    0.00799259       9
Co     1.80956162    1.88834022    0.13733899      10
Cr    -1.62493063   -0.06432103   -1.61889292      11
Co     1.75947559   -0.02611899    1.74449914      12
Cr    -1.74415855    0.01396556    1.70746795      13
Cr    -1.73847245   -1.83575869    0.05322108      14
Cr    -1.81159744    1.78011075    0.02287770      15
Cr     0.06475598   -1.63821853    1.68789391      16
Cr     0.04432247    1.64117112    1.64301338      17
Co     1.14578551   -0.04026855   -1.07117110      18
          18
Lattice="  24.8920   0.0000   0.0000   0.0000  24.8920   0.0000   0.0000   0.0000  24.8920 " ConfE="      -5927.3196" DelE="          0.5264"
Cr    -0.03632368   -0.00305484   -3.46592723       1
Ni     3.57634332   -0.03035825    0.02952177       2
Cr     0.00533491    0.01552719    3.62767130       3
Cr    -3.64511151   -0.01847908    0.03537309       4
Ni    -0.02752373   -3.62547246    0.06894301       5
Cr    -0.01041667    3.55958442    0.06532882       6
Co    -0.06935189   -1.78691717   -1.66920635       7
Cr     0.04096561    1.67947924   -1.56250851       8
Cr     1.72702786   -1.77901710   -0.01122229       9
Co     1.75857282    1.72667445    0.05324138      10
Cr    -1.73741816   -0.05169369   -1.64044335      11
Co     1.78343025   -0.02699817    1.79193154      12
Cr    -1.78348642    0.01517962    1.74481132      13
Cr    -1.77003200   -1.82796071    0.06896077      14
Cr    -1.83125313    1.77026673    0.04041397      15
Cr     0.03720491   -1.62465028    1.71724876      16
Cr     0.03270105    1.62135017    1.66600294      17
Co     1.70735282   -0.03633415   -1.69712614      18
