          18
Lattice="  24.8920   0.0000   0.0000   0.0000  24.8920   0.0000   0.0000   0.0000  24.8920 " ConfE="      -5944.7030" DelE="          0.0000"
Ni     3.60874033   -0.09102749    0.10439322       1
Co     0.06981074   -0.13243063   -3.37816705       2
Ni     0.07072794   -0.07766159    3.68253533       3
Ni     0.07930397   -3.63265420    0.09944575       4
Co     0.09518513    3.40599484    0.05243283       5
Cr    -3.44219470   -0.07216786    0.08810008       6
Ni     1.82022993   -0.04050076   -1.64014892       7
Ni    -1.70112120   -0.07739646    1.87973803       8
Ni    -1.68191974   -1.85910896    0.10323359       9
Co    -1.66527867    1.70076182    0.06995896      10
Co    -1.63806660   -0.06882036   -1.63345425      11
Ni     1.81048080   -1.82155733    0.12267467      12
Cr     1.82479060    1.71632649    0.10522205      13
Ni     0.09815226   -1.82231192    1.88990769      14
Ni     0.06948099    1.69040257    1.91664806      15
Cr     0.05118125   -1.82553807   -1.71175367      16
Cr     1.84087382   -0.00616807    1.90986774      17
Cr     0.00000000    0.00000000    0.00000000      18
          18
Lattice="  24.8920   0.0000   0.0000   0.0000  24.8920   0.0000   0.0000   0.0000  24.8920 " ConfE="      -5944.2435" DelE="          0.4595"
Ni     3.65311011   -0.09895098    0.11326261       1
Co     0.07862991   -0.12364169   -3.33020387       2
Ni     0.06503922   -0.06730589    3.67460547       3
Ni     0.08430075   -3.63011664    0.09918665       4
Co     0.07868310    3.42638844    0.08524212       5
Cr    -3.56494187   -0.12968275    0.13394328       6
Ni     1.95083557   -0.10485333   -1.66596719       7
Ni    -1.69754815   -0.07291427    1.84635072       8
Ni    -1.64629058   -1.80806482    0.09199524       9
Co    -1.81527332    1.70857622    0.14840435      10
Co    -1.73960418   -0.09364802   -1.62731012      11
Ni     1.79859492   -1.78675795    0.11917705      12
Cr     1.94847487    1.71565307    0.13880017      13
Ni     0.10421107   -1.80553068    1.88335237      14
Ni     0.06204088    1.66405454    1.83519448      15
Cr     0.05600469   -1.77794726   -1.69402193      16
Cr     1.79159921    0.00046340    1.84850995      17
Cr     0.06201866    0.96826483   -0.85290312      18
          18
Lattice="  24.8920   0.0000   0.0000   0.0000  24.8920   0.0000   0.0000   0.0000  24.8920 " ConfE="      -5944.6731" DelE="          0.0299"
Ni     3.63363861   -0.09861382    0.11450743       1
Co     0.07888774   -0.12723710   -3.43947599       2
Ni     0.06812886   -0.07541406    3.69692389       3
Ni     0.08001755   -3.63070781    0.09853679       4
Co     0.09363021    3.46164312    0.10846849       5
Cr    -3.50325676   -0.09732227    0.11430183       6
Ni     1.82621392   -0.06587929   -1.61706833       7
Ni    -1.69333740   -0.07833025    1.86396534       8
Ni    -1.65640462   -1.82716999    0.10414891       9
Co    -1.67125855    1.67578679    0.09963565      10
Co    -1.62467900   -0.08697266   -1.62149188      11
Ni     1.80117151   -1.80353437    0.14045051      12
Cr     1.83338041    1.68100355    0.14118193      13
Ni     0.10400254   -1.80822701    1.89343680      14
Ni     0.07742931    1.65973928    1.87685550      15
Cr     0.04037398   -1.75505575   -1.69124598      16
Cr     1.83672590   -0.01051789    1.91760789      17
Cr     0.00043390    1.56998955   -1.60566602      18
