          18
Lattice="  24.8920   0.0000   0.0000   0.0000  24.8920   0.0000   0.0000   0.0000  24.8920 " ConfE="      -5948.7437" DelE="          0.0000"
Ni    -0.02044437    0.04284353   -3.50617836       1
Ni    -3.54980715    0.02019184    0.03841982       2
Ni    -0.01804284    0.05230972    3.61344401       3
Co    -0.01845590   -3.42679686   -0.01308863       4
Co    -0.08920528    3.58951080    0.04968887       5
Cr     3.51129973    0.01447067    0.09066999       6
Ni    -1.78131271    0.00324217   -1.73143753       7
Ni    -0.03129385    1.81069735   -1.71852988       8
Cr     1.66771744   -0.10209345   -1.62478748       9
Ni     1.72775638    1.81004972    0.05876162      10
Co     1.78265761   -1.73805881   -0.01431682      11
Ni     1.74629955    0.02873468    1.83651806      12
Ni    -0.05338699    1.81952520    1.83498644      13
Co    -1.81401055   -1.77808124   -0.03798454      14
Ni    -0.02366322   -1.70959933    1.83888892      15
Ni    -1.79183487    0.03876954    1.81405296      16
Cr    -1.82190374    1.82319425    0.05293316      17
Co     0.00000000    0.00000000    0.00000000      18
          18
Lattice="  24.8920   0.0000   0.0000   0.0000  24.8920   0.0000   0.0000   0.0000  24.8920 " ConfE="      -5948.3146" DelE="          0.4291"
Ni    -0.03584173    0.04322622   -3.48531984       1
Ni    -3.62268217    0.03351037    0.05455081       2
Ni    -0.01731362    0.04753778    3.60807193       3
Co    -0.01226130   -3.38823911   -0.01720899       4
Co    -0.09064585    3.58315996    0.03596132       5
Cr     3.58371994    0.02628912    0.10266160       6
Ni    -1.94464412    0.07328270   -1.75751362       7
Ni    -0.04857967    1.72929954   -1.66987593       8
Cr     1.83296932   -0.03543386   -1.69188356       9
Ni     1.71986990    1.75402743    0.04279932      10
Co     1.96515200   -1.75190068    0.04041071      11
Ni     1.73948994    0.01653659    1.79596826      12
Ni    -0.05973535    1.79018821    1.79635973      13
Co    -1.96852812   -1.78675223   -0.00613761      14
Ni    -0.02510933   -1.67747127    1.77531313      15
Ni    -1.79096558    0.03327793    1.76881543      16
Cr    -1.83669622    1.79784145    0.05258997      17
Co     0.00456697   -0.90171483   -0.86383116      18
          18
Lattice="  24.8920   0.0000   0.0000   0.0000  24.8920   0.0000   0.0000   0.0000  24.8920 " ConfE="      -5948.9382" DelE="         -0.1945"
Ni    -0.02897436    0.05899173   -3.53479517       1
Ni    -3.57903054    0.02740952    0.04805493       2
Ni    -0.02154844    0.05186565    3.62023668       3
Co    -0.01968067   -3.48799277    0.05723294       4
Co    -0.08721099    3.59406227    0.04259601       5
Cr     3.56160057    0.01556725    0.11994072       6
Ni    -1.80301961    0.03194685   -1.70245228       7
Ni    -0.03745423    1.74286534   -1.67259580       8
Cr     1.67623661   -0.10119701   -1.60687020       9
Ni     1.70539028    1.75591787    0.05706933      10
Co     1.78945009   -1.70878735    0.02486111      11
Ni     1.72690629    0.02822019    1.81839647      12
Ni    -0.06755330    1.80924312    1.81825659      13
Co    -1.83389491   -1.76737912   -0.00800726      14
Ni    -0.03104236   -1.68368007    1.79458630      15
Ni    -1.78293972    0.04596370    1.78709604      16
Cr    -1.84042918    1.83894169    0.06674143      17
Co    -0.01070080   -1.68670673   -1.66441509      18
