          18
Lattice="  24.8920   0.0000   0.0000   0.0000  24.8920   0.0000   0.0000   0.0000  24.8920 " ConfE="      -5925.9381" DelE="          0.0000"
Ni     3.51576815   -0.00543497    0.00154558       1
Ni     0.01449491   -0.00557179   -3.46150963       2
Cr     0.00848386   -0.03159686    3.57250377       3
Cr    -3.57006943   -0.02258268    0.04206096       4
Co    -0.02598888    3.52793740    0.01718530       5
Cr    -0.07668150   -3.52367387    0.10871338       6
Co     1.79277552    1.73730005    0.02202816       7
Cr     1.74997801   -1.73653342    0.05211746       8
Co    -0.04604060    1.79093756   -1.72567603       9
Co     0.03695615   -1.77321432   -1.69941919      10
Ni    -1.79348790    0.00471829    1.80505103      11
Ni    -0.02894909    1.77091792    1.81003707      12
Cr     1.76390364    0.04231231    1.81864964      13
Cr    -1.81689410   -0.02847558   -1.72860921      14
Co    -1.80777423    1.77766524    0.00775070      15
Co     0.00946467   -1.75378605    1.83799977      16
Co    -1.78069186   -1.79436034    0.03573085      17
Ni     0.00000000    0.00000000    0.00000000      18
          18
Lattice="  24.8920   0.0000   0.0000   0.0000  24.8920   0.0000   0.0000   0.0000  24.8920 " ConfE="      -5925.4414" DelE="          0.4966"
Ni     3.44324535   -0.00826006   -0.00411301       1
Ni     0.01555758   -0.01276335   -3.43952496       2
Cr     0.02233466   -0.03003701    3.59393451       3
Cr    -3.58251138   -0.01739331    0.03993365       4
Co    -0.04146301    3.56236536    0.02536909       5
Cr    -0.08504678   -3.56791156    0.10315504       6
Co     1.82617628    1.91513717    0.08955418       7
Cr     1.79788916   -1.94300639    0.09075465       8
Co    -0.06417796    1.90689426   -1.75053547       9
Co     0.00369271   -1.94122536   -1.78770225      10
Ni    -1.75482878    0.00464410    1.78510861      11
Ni    -0.02131548    1.76640167    1.80045556      12
Cr     1.71576633    0.02572465    1.79121666      13
Cr    -1.74731119   -0.03888297   -1.67361216      14
Co    -1.76822611    1.73731163   -0.00543048      15
Co     0.03841151   -1.72769943    1.80006575      16
Co    -1.72448695   -1.74846876    0.00392350      17
Ni     0.63450474   -0.03554293   -0.56690545      18
          18
Lattice="  24.8920   0.0000   0.0000   0.0000  24.8920   0.0000   0.0000   0.0000  24.8920 " ConfE="      -5925.4929" DelE="          0.4452"
Ni     3.44446441   -0.00901762   -0.01944094       1
Ni     0.03073975   -0.01154701   -3.39834241       2
Cr     0.03107190   -0.03180646    3.56921229       3
Cr    -3.56699351   -0.02065243    0.03834017       4
Co    -0.04099466    3.58389388    0.02993478       5
Cr    -0.08772501   -3.60468109    0.10450641       6
Co     1.82038405    1.94022849    0.09775579       7
Cr     1.77968573   -1.94171597    0.10006274       8
Co    -0.08131968    1.94941907   -1.74438365       9
Co    -0.01697058   -1.97688270   -1.75797336      10
Ni    -1.74124496    0.00282198    1.76766414      11
Ni    -0.02221865    1.77426481    1.79131701      12
Cr     1.67629733    0.01370908    1.72115263      13
Cr    -1.71770243   -0.04098487   -1.63920940      14
Co    -1.76848863    1.74353706   -0.00886393      15
Co     0.03423816   -1.74110010    1.78527554      16
Co    -1.73320495   -1.76395370    0.00675768      17
Ni     0.87101217   -0.01300637   -0.83524607      18
