          18
Lattice="  24.8920   0.0000   0.0000   0.0000  24.8920   0.0000   0.0000   0.0000  24.8920 " ConfE="      -5927.8366" DelE="          0.0000"
Ni     0.04976992   -3.44673806    0.16220923       1
Cr    -0.04053982    0.05847196   -3.26390661       2
Co     0.03317078    3.73819578    0.17313463       3
Co     0.00211836    0.13041395    3.70929132       4
Cr    -3.49681211    0.16914599    0.19477490       5
Cr     3.59341054    0.09201268    0.15088314       6
Cr    -1.72143571   -1.69503350    0.11698833       7
Cr     1.77882169   -1.70754605    0.06710830       8
Co    -1.75069390    0.10026510   -1.59061806       9
Ni     1.82549538    0.10294925   -1.62281358      10
Ni     0.05334911   -1.67024937    1.95941533      11
Co     0.02904604    1.92190742   -1.59049037      12
Cr     0.06181190    1.90475433    1.95080142      13
Cr    -1.69544841    0.12876921    1.95484999      14
Ni     1.78531267    0.11236647    1.90427196      15
Cr    -1.71678536    1.91739700    0.17416479      16
Cr     1.77020867    1.91437648    0.17244020      17
Cr     0.00000000    0.00000000    0.00000000      18
          18
Lattice="  24.8920   0.0000   0.0000   0.0000  24.8920   0.0000   0.0000   0.0000  24.8920 " ConfE="      -5927.4166" DelE="          0.4200"
Ni     0.02425758   -3.35863359    0.16543272       1
Cr    -0.00598447    0.06586562   -3.34981235       2
Co     0.03408797    3.68798467    0.15673172       3
Co     0.01480432    0.11804758    3.74911486       4
Cr    -3.60837635    0.29063990    0.25646867       5
Cr     3.68241168    0.13346416    0.21571029       6
Cr    -1.97531222   -1.58975436    0.21382701       7
Cr     1.94728695   -1.65783810    0.15675883       8
Co    -1.89781339    0.15218723   -1.65368633       9
Ni     1.94811494    0.11575340   -1.62817587      10
Ni     0.03762168   -1.59997012    1.89295576      11
Co     0.04866246    1.79633009   -1.59853271      12
Cr     0.10107469    1.87729779    2.00931642      13
Cr    -1.66720177    0.10878462    1.99438626      14
Ni     1.80186366    0.10294196    1.92528220      15
Cr    -1.46762146    1.61398227    0.19136030      16
Cr     1.65045876    1.75691942    0.17183135      17
Cr    -0.03109609   -0.87862863   -0.78770639      18
          18
Lattice="  24.8920   0.0000   0.0000   0.0000  24.8920   0.0000   0.0000   0.0000  24.8920 " ConfE="      -5928.2360" DelE="         -0.3994"
Ni     0.06930279   -3.45327220    0.20277198       1
Cr    -0.01533246    0.13111757   -3.41877996       2
Co     0.04120253    3.73970399    0.17129061       3
Co     0.01425182    0.13112535    3.77926547       4
Cr    -3.46585127    0.18906966    0.20971579       5
Cr     3.57081373    0.11497087    0.16954983       6
Cr    -1.49938212   -1.42716181    0.16470951       7
Cr     1.70194160   -1.52991621    0.14883823       8
Co    -1.71242129    0.13170203   -1.61272683       9
Ni     1.77873632    0.14052890   -1.61712195      10
Ni     0.07791175   -1.65529766    1.99478675      11
Co     0.04047233    1.88619333   -1.60040835      12
Cr     0.09955731    1.92023086    2.02391240      13
Cr    -1.64850445    0.13548048    2.02604824      14
Ni     1.77010153    0.14386458    1.96233688      15
Cr    -1.45860399    1.69555757    0.19825216      16
Cr     1.66990160    1.83195960    0.19121327      17
Cr     0.06000923   -1.65528745   -1.65078669      18
