          18
Lattice="  24.8920   0.0000   0.0000   0.0000  24.8920   0.0000   0.0000   0.0000  24.8920 " ConfE="      -5947.9043" DelE="          0.0000"
Co    -0.00175078    3.54084215    0.04779480       1
Cr    -0.03312601    0.00255258   -3.52021015       2
Ni     3.55340929    0.01983828    0.03573157       3
Cr     0.00516125   -0.03470475    3.58062379       4
Cr     0.01683330   -3.53797163    0.02904148       5
Cr    -3.49018961   -0.01992248   -0.00647484       6
Cr     1.72883325    1.78223943    0.03361757       7
Cr     1.67717331    0.15866992   -1.73431283       8
Co    -1.72787638    1.73614401   -0.01916487       9
Cr    -1.66621998    0.10013868   -1.70534067      10
Ni     1.80018974    0.03025076    1.83202275      11
Ni     1.77588555   -1.73473812    0.02890502      12
Ni     0.01136218    1.75699900    1.85109175      13
Ni    -1.77251772   -1.79032244    0.05072222      14
Cr    -0.00111004   -1.80191188   -1.76075481      15
Cr     0.03282945   -1.76386176    1.84933505      16
Co    -1.73391858   -0.04945786    1.81099220      17
Co     0.00000000    0.00000000    0.00000000      18
          18
Lattice="  24.8920   0.0000   0.0000   0.0000  24.8920   0.0000   0.0000   0.0000  24.8920 " ConfE="      -5947.4120" DelE="          0.4924"
Co    -0.00140450    3.49046763    0.04395826       1
Cr    -0.01883225    0.02784340   -3.41273375       2
Ni     3.61429391    0.00181935    0.05850643       3
Cr     0.00787070   -0.03923796    3.58924543       4
Cr     0.01768149   -3.54178701    0.02812701       5
Cr    -3.56663515   -0.02343491    0.03614400       6
Cr     1.88295675    1.80047414    0.08681482       7
Cr     1.95865967    0.14376477   -1.79040813       8
Co    -1.87683050    1.73985214    0.03570372       9
Cr    -1.89880491    0.05650437   -1.74821793      10
Ni     1.80586454    0.03018032    1.82246435      11
Ni     1.75402143   -1.67988040    0.01117293      12
Ni     0.01222890    1.72513699    1.80081448      13
Ni    -1.77380854   -1.75907635    0.03751634      14
Cr    -0.00858026   -1.75548330   -1.71413939      15
Cr     0.01682381   -1.69040510    1.78174824      16
Co    -1.71855255   -0.05351667    1.79231855      17
Co     0.05493839    0.65721337   -0.71275238      18
          18
Lattice="  24.8920   0.0000   0.0000   0.0000  24.8920   0.0000   0.0000   0.0000  24.8920 " ConfE="      -5947.8347" DelE="          0.0696"
Co    -0.00180625    3.56907130    0.04527560       1
Cr    -0.03171082   -0.02089366   -3.56251206       2
Ni     3.58071190    0.00915667    0.04302697       3
Cr     0.01655314   -0.03360532    3.60700283       4
Cr     0.02518268   -3.57464147    0.03207734       5
Cr    -3.52174451   -0.02721925    0.01267498       6
Cr     1.74746789    1.76589968    0.02435560       7
Cr     1.73939173    0.06118531   -1.71657295       8
Co    -1.74804883    1.68427677    0.01168258       9
Cr    -1.73600178    0.02254232   -1.67617568      10
Ni     1.78637956    0.03558952    1.81504830      11
Ni     1.73003437   -1.69977764    0.04247586      12
Ni     0.01964793    1.74184581    1.80076360      13
Ni    -1.74483165   -1.78252064    0.05808881      14
Cr    -0.00039050   -1.73725427   -1.72382700      15
Cr     0.01762129   -1.72878734    1.85331991      16
Co    -1.68302104   -0.06836239    1.79431085      17
Co    -0.00080150    1.67797976   -1.69132377      18
