          18
Lattice="  24.8920   0.0000   0.0000   0.0000  24.8920   0.0000   0.0000   0.0000  24.8920 " ConfE="      -5933.9256" DelE="          0.0000"
Ni     0.00760329   -0.00428701    3.46412235       1
Ni     0.00194620   -3.56463824   -0.04655625       2
Ni    -0.03024034    3.54580694   -0.04479403       3
Ni    -0.04863286    0.01051803   -3.60761086       4
Cr     3.54653155    0.06358042   -0.03586619       5
Cr    -3.59251887   -0.02326227   -0.07304533       6
Ni     0.00601768   -1.77362775    1.72186159       7
Ni     1.74869949    1.72181424    0.02690062       8
Ni    -1.81098742   -0.02217346    1.71856342       9
Cr    -0.08127461    1.80701676    1.73325905      10
Co     1.76956714   -1.70572186   -0.05082803      11
Cr    -1.79384482   -1.78306416   -0.08807877      12
Co    -1.85337138    1.76340528   -0.04760471      13
Cr    -1.79775754   -0.00884878   -1.82757232      14
Co     1.74802926    0.02949350   -1.85635289      15
Cr    -0.04506873    1.75200869   -1.78045266      16
Co    -0.02650515   -1.76667369   -1.81978408      17
Ni     0.00000000    0.00000000    0.00000000      18
          18
Lattice="  24.8920   0.0000   0.0000   0.0000  24.8920   0.0000   0.0000   0.0000  24.8920 " ConfE="      -5933.1243" DelE="          0.8013"
Ni     0.01350416   -0.00592019    3.43561602       1
Ni    -0.00971191   -3.64217210   -0.06124827       2
Ni    -0.03519686    3.63225069   -0.07351109       3
Ni    -0.04111601    0.01031783   -3.59031109       4
Cr     3.50109560    0.04106695   -0.03234741       5
Cr    -3.60353034   -0.02905971   -0.07030970       6
Ni    -0.04850568   -1.90790507    1.72769891       7
Ni     1.80250088    1.92171403   -0.09666559       8
Ni    -1.69644659   -0.02157560    1.62583973       9
Cr    -0.12585420    1.94431819    1.69028748      10
Co     1.76417338   -1.84796164   -0.09791010      11
Cr    -1.74416283   -1.78401599   -0.08744836      12
Co    -1.81578556    1.77067175   -0.05691857      13
Cr    -1.74301013   -0.02339038   -1.76407375      14
Co     1.70971533    0.02949920   -1.77755611      15
Cr    -0.06280311    1.66249767   -1.63140392      16
Co    -0.04643292   -1.73346197   -1.74625164      17
Ni     0.99946967    0.06959665    1.00375043      18
          18
Lattice="  24.8920   0.0000   0.0000   0.0000  24.8920   0.0000   0.0000   0.0000  24.8920 " ConfE="      -5933.7945" DelE="          0.1310"
Ni    -0.00850906   -0.00389413    3.48293524       1
Ni    -0.00175037   -3.59476378   -0.05472923       2
Ni    -0.02935966    3.58693619   -0.05744005       3
Ni    -0.05381251    0.01321270   -3.61319844       4
Cr     3.58435524    0.05884340   -0.10016808       5
Cr    -3.62205009   -0.02791739   -0.08650823       6
Ni    -0.01441413   -1.76907707    1.66613090       7
Ni     1.73026804    1.75450009   -0.03979030       8
Ni    -1.74977498   -0.02941818    1.64368283       9
Cr    -0.08559516    1.77107660    1.62878615      10
Co     1.73611612   -1.71811487   -0.08863507      11
Cr    -1.78494121   -1.78026817   -0.11461084      12
Co    -1.82209846    1.74707058   -0.06576612      13
Cr    -1.77783225   -0.01977149   -1.80216080      14
Co     1.70824661    0.02918290   -1.82009255      15
Cr    -0.07031444    1.67105385   -1.67586722      16
Co    -0.05750704   -1.71538170   -1.75712957      17
Ni     1.74414247    0.00095158    1.65821192      18
