          18
Lattice="  24.8920   0.0000   0.0000   0.0000  24.8920   0.0000   0.0000   0.0000  24.8920 " ConfE="      -5949.5602" DelE="          0.0000"
Ni     0.02631182   -3.38656016   -0.01047451       1
Ni     0.03477201    0.04459886    3.47485821       2
Ni     0.00647874    3.58348144   -0.04656273       3
Cr     0.00519071   -0.00341420   -3.66937263       4
Cr    -3.56686904    0.03359464   -0.05094797       5
Co     3.58456996    0.07196682   -0.06340815       6
Cr    -1.75363239   -1.63261506   -0.00479404       7
Co     1.78949531   -1.65091157    0.00675989       8
Ni    -1.74582425    0.05389641    1.71791912       9
Cr     1.77832981   -0.05641070    1.68522553      10
Co    -0.00660257   -1.66017115   -1.84848642      11
Co     0.04444720    1.82963180    1.71278330      12
Ni     0.01122052    1.82466253   -1.85867150      13
Ni    -1.76106269    0.07695405   -1.85108450      14
Ni     1.78347575    0.06774122   -1.84475866      15
Ni    -1.77277379    1.81392116   -0.05249283      16
Cr     1.73572223    1.70129649    0.00725719      17
Co     0.00000000    0.00000000    0.00000000      18
          18
Lattice="  24.8920   0.0000   0.0000   0.0000  24.8920   0.0000   0.0000   0.0000  24.8920 " ConfE="      -5949.2310" DelE="          0.3292"
Ni     0.03226419   -3.38478923   -0.02364248       1
Ni     0.02987985    0.03711571    3.46469034       2
Ni     0.00459746    3.57923135   -0.03629930       3
Cr    -0.00154277   -0.00517334   -3.66709743       4
Cr    -3.65183408    0.05639112   -0.07203486       5
Co     3.63863289    0.07370377   -0.07812907       6
Cr    -1.87132526   -1.65099120   -0.02050073       7
Co     1.96422401   -1.71256236   -0.07623596       8
Ni    -1.90157162    0.11527251    1.73985133       9
Cr     1.93328347   -0.04807147    1.74125557      10
Co    -0.00591042   -1.61803337   -1.76077479      11
Co     0.05674016    1.72555530    1.65375133      12
Ni     0.01329658    1.79026733   -1.82271875      13
Ni    -1.76254312    0.06705410   -1.80857869      14
Ni     1.78414807    0.06469291   -1.81012677      15
Ni    -1.76880413    1.78435568   -0.04575160      16
Cr     1.71372079    1.64661866    0.02592964      17
Co     0.04083470   -0.84309626    0.83491315      18
          18
Lattice="  24.8920   0.0000   0.0000   0.0000  24.8920   0.0000   0.0000   0.0000  24.8920 " ConfE="      -5949.7672" DelE="         -0.2071"
Ni     0.02936688   -3.44641142   -0.04648550       1
Ni     0.03098573    0.07456586    3.51452828       2
Ni     0.00700743    3.60183675   -0.04847407       3
Cr    -0.00013831    0.00927313   -3.70007919       4
Cr    -3.60411546    0.04214112   -0.06312880       5
Co     3.60890192    0.07393884   -0.06856859       6
Cr    -1.74819862   -1.62743176   -0.03940429       7
Co     1.76722182   -1.60672044   -0.01974076       8
Ni    -1.73955987    0.07759500    1.67116940       9
Cr     1.82353755   -0.02014849    1.68070204      10
Co    -0.02347917   -1.63116863   -1.78278578      11
Co     0.07506875    1.77874356    1.66258673      12
Ni     0.01693435    1.81823477   -1.85088264      13
Ni    -1.74774340    0.08187267   -1.83256500      14
Ni     1.76926525    0.08238714   -1.82963380      15
Ni    -1.75261920    1.80130207   -0.06024996      16
Cr     1.72711940    1.69812111    0.00304797      17
Co     0.01125121   -1.65182614    1.68630700      18
