          18
Lattice="  24.8920   0.0000   0.0000   0.0000  24.8920   0.0000   0.0000   0.0000  24.8920 " ConfE="      -5949.5276" DelE="          0.0000"
Ni     0.06566130    0.06628447    3.48130801       1
Co    -3.39900777    0.03704811   -0.03573941       2
Cr     0.10648130    3.58862834   -0.06232540       3
Cr     0.17431546    0.02306846   -3.60186877       4
Co     0.15348211   -3.49365536   -0.02308865       5
Cr     3.66773937    0.09424208   -0.06203999       6
Ni     0.02885050    1.75867858    1.72621725       7
Co    -1.65662657    1.81422843   -0.03567007       8
Ni    -1.65143746    0.06243859   -1.83425378       9
Co    -1.61970800   -1.67068669    0.02357725      10
Ni     1.88918529    0.04091917    1.74550106      11
Cr     0.04563652   -1.71414773    1.71996364      12
Ni     1.85417924    1.79983708   -0.02292045      13
Ni     0.10722972    1.83018917   -1.81594057      14
Ni     1.88621308   -1.69414317   -0.02175186      15
Co     0.11687960   -1.73849458   -1.80014995      16
Co     1.86715976    0.05519670   -1.79800751      17
Cr     0.00000000    0.00000000    0.00000000      18
          18
Lattice="  24.8920   0.0000   0.0000   0.0000  24.8920   0.0000   0.0000   0.0000  24.8920 " ConfE="      -5945.5016" DelE="          4.0260"
Ni     0.05407055    0.03846365    3.51268448       1
Co    -3.41169172    0.03134709   -0.04891610       2
Cr     0.09663976    3.55732455   -0.05728652       3
Cr     0.17263220    0.02616508   -3.61776813       4
Co     0.12968970   -3.56931780   -0.01433884       5
Cr     3.63814616    0.10557153   -0.07118625       6
Ni    -0.05271229    1.67843428    1.73356584       7
Co    -1.66450097    1.89751425   -0.05301919       8
Ni    -1.57566227    0.06003406   -1.78340142       9
Co    -1.49481618   -1.56058005    0.11690313      10
Ni     1.84968664   -0.00975645    1.74172571      11
Cr     0.01618348   -1.77074625    1.76986932      12
Ni     1.76888373    1.78670733    0.10679401      13
Ni     0.10301387    1.83933364   -1.82430945      14
Ni     1.87883584   -1.83384749    0.10554152      15
Co    -0.04505015   -1.94005732   -1.83738131      16
Co     2.53126679    1.41311285   -2.03386030      17
Cr     1.42713775   -0.37368110   -1.59592549      18
          18
Lattice="  24.8920   0.0000   0.0000   0.0000  24.8920   0.0000   0.0000   0.0000  24.8920 " ConfE="      -5945.5535" DelE="          3.9741"
Ni     0.05369028    0.04107543    3.52462016       1
Co    -3.42163944    0.03934085   -0.04161925       2
Cr     0.09668470    3.53974971   -0.06424839       3
Cr     0.15218724    0.01357391   -3.64730081       4
Co     0.13706171   -3.55342067   -0.00995710       5
Cr     3.65361091    0.12733207   -0.07608117       6
Ni    -0.05113005    1.67193638    1.73654323       7
Co    -1.64533713    1.89482054   -0.06022193       8
Ni    -1.59663015    0.07508582   -1.78191144       9
Co    -1.53689857   -1.57654830    0.11954107      10
Ni     1.85071525    0.00007924    1.75102002      11
Cr     0.01095469   -1.74584038    1.75236469      12
Ni     1.76291594    1.77634545    0.10843430      13
Ni     0.14689832    1.80351933   -1.83697578      14
Ni     1.85045508   -1.74342792    0.05079464      15
Co     0.02282205   -1.82714810   -1.78170611      16
Co     2.66577977    1.57142583   -1.97938260      17
Cr     1.64624542   -0.33336006   -1.79578468      18
