          18
Lattice="  24.8920   0.0000   0.0000   0.0000  24.8920   0.0000   0.0000   0.0000  24.8920 " ConfE="      -5928.2338" DelE="          0.0000"
Ni     0.03546999   -3.49593423    0.05521465       1
Cr     3.47785367   -0.00983987    0.01893033       2
Co    -0.03653781    3.64740590    0.03871938       3
Cr    -3.59047154    0.09879815    0.06538211       4
Cr    -0.08692816    0.04290494   -3.46800544       5
Co    -0.06638574    0.05445560    3.57029369       6
Cr     0.03350711   -1.75755447   -1.73020732       7
Ni     0.01787059   -1.73973813    1.79515579       8
Ni     1.76620288    0.02389862   -1.72863444       9
Ni     1.73891742    0.03764334    1.78969252      10
Cr    -1.82823944   -1.74462541    0.02569271      11
Cr     1.72030369    1.85488865    0.05173817      12
Cr    -1.80187602    1.83633471    0.03909328      13
Co    -1.82363271    0.04216275   -1.71750437      14
Cr    -1.76699106    0.05047165    1.83379379      15
Co    -0.03569842    1.81865963   -1.72367962      16
Cr    -0.00589393    1.82785234    1.82708598      17
Cr     0.00000000    0.00000000    0.00000000      18
          18
Lattice="  24.8920   0.0000   0.0000   0.0000  24.8920   0.0000   0.0000   0.0000  24.8920 " ConfE="      -5927.5009" DelE="          0.7329"
Ni     0.00842379   -3.42560946    0.06129619       1
Cr     3.43869042    0.03937623    0.02632472       2
Co    -0.02391918    3.64300541    0.02494813       3
Cr    -3.54694610    0.11577664    0.07570554       4
Cr    -0.10092850    0.07776695   -3.60396807       5
Co    -0.05635327    0.06752786    3.66847583       6
Cr     0.00346267   -1.76832770   -1.94587080       7
Ni    -0.02588373   -1.78634715    2.01055401       8
Ni     1.75034529    0.10047685   -1.87824268       9
Ni     1.74407691    0.06883957    1.93344537      10
Cr    -1.70379449   -1.56952412    0.01773600      11
Cr     1.62787362    1.78649536    0.03633578      12
Cr    -1.51244151    1.57912621    0.03078495      13
Co    -1.74740284    0.02471990   -1.74467241      14
Cr    -1.65739339    0.01349647    1.85210768      15
Co    -0.01551578    1.80044249   -1.75721622      16
Cr     0.04678175    1.76327980    1.82890442      17
Cr     0.76813457   -0.89996793    0.02891292      18
          18
Lattice="  24.8920   0.0000   0.0000   0.0000  24.8920   0.0000   0.0000   0.0000  24.8920 " ConfE="      -5928.2360" DelE="         -0.0022"
Ni    -0.00436224   -3.52547619    0.06738118       1
Cr     3.49714870    0.04276688    0.03415903       2
Co    -0.03246250    3.66749999    0.03589982       3
Cr    -3.53951630    0.11686566    0.07432500       4
Cr    -0.08899750    0.05891358   -3.55417075       5
Co    -0.05941322    0.05892135    3.64387467       6
Cr    -0.01365580   -1.72749144   -1.78617748       7
Ni     0.00424671   -1.72750165    1.85939595       8
Ni     1.70507128    0.06832491   -1.75251274       9
Ni     1.69643650    0.07166059    1.82694608      10
Cr    -1.57304716   -1.49936580    0.02931871      11
Cr     1.59623657    1.75975561    0.05582248      12
Cr    -1.53226902    1.62335357    0.06286137      13
Co    -1.78608633    0.05949804   -1.74811762      14
Cr    -1.72216949    0.06327649    1.89065745      15
Co    -0.03319271    1.81398933   -1.73579914      16
Cr     0.02589228    1.84802686    1.88852161      17
Cr     1.62827657   -1.60212021    0.01344744      18
