          18
Lattice="  24.8920   0.0000   0.0000   0.0000  24.8920   0.0000   0.0000   0.0000  24.8920 " ConfE="      -5938.2177" DelE="          0.0000"
Cr     0.00658339    0.03356170    3.42856168       1
Ni    -3.53007827    0.01242078   -0.03956717       2
Ni     3.51837775   -0.00576451   -0.03478582       3
Cr     0.07128871    3.56292114   -0.00972138       4
Cr    -0.02065403   -3.60080902   -0.05837175       5
Co     0.06403526   -0.05906917   -3.66216711       6
Ni    -1.72581677    1.78196978   -0.02473753       7
Ni     1.72586098    1.77645711    0.02499097       8
Co    -1.77008320    0.03500379    1.75487009       9
Co     1.74864534    0.02081044    1.77940456      10
Ni    -1.76047522   -1.78009208   -0.04917755      11
Ni     0.00121606   -1.80556555    1.71223146      12
Ni    -1.74248728    0.00094714   -1.84562836      13
Ni     1.74940386   -0.01206953   -1.80302831      14
Ni    -0.00562237    1.77862198   -1.83945080      15
Cr     1.74381830   -1.82818283   -0.06090611      16
Co     0.01289066   -1.83646518   -1.86365180      17
Ni     0.00000000    0.00000000    0.00000000      18
          18
Lattice="  24.8920   0.0000   0.0000   0.0000  24.8920   0.0000   0.0000   0.0000  24.8920 " ConfE="      -5937.6637" DelE="          0.5540"
Cr    -0.00851207    0.07615424    3.36684589       1
Ni    -3.58485384    0.00143104   -0.07071979       2
Ni     3.57741020   -0.02307772   -0.05549154       3
Cr     0.05907036    3.48149270    0.02355846       4
Cr    -0.02607385   -3.62689087   -0.04630478       5
Co     0.06388613   -0.05477039   -3.66553152       6
Ni    -1.85206185    1.80325014   -0.06429156       7
Ni     1.88616651    1.81377554   -0.03092538       8
Co    -1.95234622   -0.00924091    1.75962241       9
Co     1.96645846   -0.00222471    1.82471277      10
Ni    -1.73561156   -1.73736641   -0.05241312      11
Ni     0.00750582   -1.73950184    1.68145262      12
Ni    -1.73723582    0.00385273   -1.82931350      13
Ni     1.72698268   -0.00331782   -1.76116618      14
Ni    -0.00701431    1.76161995   -1.78098336      15
Cr     1.69759912   -1.76537044   -0.05607327      16
Co     0.01886115   -1.82096352   -1.83042631      17
Ni     0.03524761    0.57661554    0.64230825      18
          18
Lattice="  24.8920   0.0000   0.0000   0.0000  24.8920   0.0000   0.0000   0.0000  24.8920 " ConfE="      -5938.6070" DelE="         -0.3893"
Cr     0.00009603   -0.01936833    3.49904719       1
Ni    -3.54374396    0.01072216   -0.05152523       2
Ni     3.53880221   -0.01860065   -0.05084851       3
Cr     0.07012163    3.60110507   -0.05613889       4
Cr    -0.02419398   -3.62112807   -0.04944539       5
Co     0.06292804   -0.05607204   -3.67702003       6
Ni    -1.73071452    1.76023750   -0.05934234       7
Ni     1.73815023    1.74014648   -0.03467357       8
Co    -1.78316315    0.01727992    1.72363385       9
Co     1.76621323   -0.00320153    1.74214741      10
Ni    -1.72390373   -1.74551677   -0.06121184      11
Ni     0.00852731   -1.74503814    1.67006337      12
Ni    -1.72057099    0.00109376   -1.83615615      13
Ni     1.71718692   -0.02270719   -1.78200546      14
Ni    -0.00929229    1.77541726   -1.82059391      15
Cr     1.70677217   -1.81880960   -0.08467799      16
Co     0.01846708   -1.83353182   -1.84960282      17
Ni     0.00641438    1.75677705    1.69771682      18
