          18
Lattice="  24.8920   0.0000   0.0000   0.0000  24.8920   0.0000   0.0000   0.0000  24.8920 " ConfE="      -5946.3416" DelE="          0.0000"
Cr    -3.53118287    0.02151268   -0.01368838       1
Ni    -0.01250107    0.02143585   -3.56909400       2
Co    -0.01772539   -3.50037159   -0.03070038       3
Cr     0.03545237    0.01525853    3.44481314       4
Cr    -0.01955435    3.56436549    0.01211456       5
Cr     3.53025105   -0.00503985   -0.00270663       6
Ni    -1.76919859   -0.00378264   -1.74971672       7
Ni    -1.79290571   -0.04497896    1.70423540       8
Cr     0.00336436   -1.76238051   -1.69174948       9
Ni    -0.02149226    1.80764417   -1.77043030      10
Co    -0.01587233   -1.76498140    1.71480637      11
Ni     1.76588782    0.01695913   -1.79407906      12
Co    -1.77205096    1.83352439   -0.01854815      13
Co     1.80585632   -1.77682295   -0.04144260      14
Cr     0.01119879    1.72598158    1.67407779      15
Co     1.77630714    1.78953808    0.01355308      16
Co     1.78075275   -0.01575358    1.75411365      17
Co     0.00000000    0.00000000    0.00000000      18
          18
Lattice="  24.8920   0.0000   0.0000   0.0000  24.8920   0.0000   0.0000   0.0000  24.8920 " ConfE="      -5945.7494" DelE="          0.5922"
Cr    -3.45022076   -0.01086629    0.00575648       1
Ni    -0.00527885    0.03605381   -3.62493506       2
Co    -0.02339572   -3.47881861   -0.01954136       3
Cr     0.05648252    0.05625735    3.54566175       4
Cr    -0.03177791    3.56630452    0.00830310       5
Cr     3.53962630   -0.01548502   -0.00151245       6
Ni    -1.83288884    0.08577504   -1.95679040       7
Ni    -1.78804096    0.01443649    1.88293946       8
Cr     0.05211794   -1.79267850   -1.86681188       9
Ni    -0.03552368    1.77995855   -1.76099733      10
Co     0.05041390   -1.75492353    1.88643982      11
Ni     1.71188324    0.01629837   -1.76662013      12
Co    -1.73853430    1.70264901   -0.01045041      13
Co     1.70852144   -1.72439676   -0.03251767      14
Cr     0.03347197    1.67367288    1.64707142      15
Co     1.73094352    1.76340285    0.02831836      16
Co     1.73740062    0.00152853    1.74920733      17
Co    -0.94901132   -1.00060453   -0.07686087      18
          18
Lattice="  24.8920   0.0000   0.0000   0.0000  24.8920   0.0000   0.0000   0.0000  24.8920 " ConfE="      -5946.5048" DelE="         -0.1632"
Cr    -3.55587381    0.03581585   -0.00624685       1
Ni    -0.00633347    0.02888725   -3.57670895       2
Co     0.02371432   -3.56726534   -0.03824105       3
Cr     0.04225742    0.03040819    3.47604517       4
Cr    -0.02090575    3.60930727    0.00919334       5
Cr     3.56957218   -0.00259044    0.00250114       6
Ni    -1.74918927    0.02324586   -1.74733530       7
Ni    -1.74616620   -0.00278561    1.70542270       8
Cr     0.02947895   -1.74489688   -1.69668240       9
Ni    -0.01789847    1.79452040   -1.73060489      10
Co     0.02391552   -1.72802314    1.70642992      11
Ni     1.73285653    0.01772638   -1.73867579      12
Co    -1.74709737    1.81307772   -0.00329314      13
Co     1.76039116   -1.75883681   -0.04541939      14
Cr     0.03478498    1.71683081    1.63483706      15
Co     1.73983476    1.78015268    0.03900979      16
Co     1.74972892   -0.00221130    1.72842035      17
Co    -1.72987656   -1.77291268   -0.03060425      18
