          18
Lattice="  24.8920   0.0000   0.0000   0.0000  24.8920   0.0000   0.0000   0.0000  24.8920 " ConfE="      -5945.5906" DelE="          0.0000"
Ni    -0.00672403    0.01824895   -3.63262949       1
Ni    -3.51178829    0.01037037   -0.07398147       2
Ni    -0.03243791    3.57878758   -0.05172709       3
Cr     0.02072145   -3.54269091   -0.06632241       4
Co     3.51919640    0.03853196   -0.13587343       5
Co     0.00660932    0.01820696    3.47349494       6
Ni    -1.73385568   -0.00641030   -1.85797308       7
Cr     1.60228669   -0.14794905   -1.79999189       8
Cr     1.73462239   -1.76142415   -0.06157946       9
Ni    -0.01942156    1.80008001   -1.85809747      10
Ni     1.75053866    1.77682509   -0.09650973      11
Co    -1.66397971   -1.76073183   -0.12857612      12
Ni    -1.78152285    1.77740700   -0.05584620      13
Co     1.76802099   -0.00391380    1.67712242      14
Co     0.00667740   -1.77591104    1.70394068      15
Co    -0.00477323    1.78417125    1.72905303      16
Cr    -1.76490093   -0.06479491    1.76074921      17
Cr     0.00000000    0.00000000    0.00000000      18
          18
Lattice="  24.8920   0.0000   0.0000   0.0000  24.8920   0.0000   0.0000   0.0000  24.8920 " ConfE="      -5944.8608" DelE="          0.7298"
Ni    -0.01429731    0.00370064   -3.58906313       1
Ni    -3.57929231    0.03842084   -0.06768983       2
Ni    -0.03869271    3.57703873   -0.05688557       3
Cr     0.01963256   -3.55847921   -0.02375139       4
Co     3.56574753    0.05321626   -0.12205443       5
Co     0.01189490    0.00344602    3.47935569       6
Ni    -1.84648425    0.03956355   -1.87167351       7
Cr     1.81348719    0.01340895   -1.89942044       8
Cr     1.97069235   -1.78093724    0.06268527       9
Ni    -0.02305653    1.74135619   -1.83537088      10
Ni     1.71667809    1.72775929   -0.09584219      11
Co    -1.85412737   -1.75038883   -0.04600034      12
Ni    -1.76407097    1.73819872   -0.06501246      13
Co     1.71532089   -0.03421078    1.60847674      14
Co    -0.00510140   -1.74973870    1.62762820      15
Co    -0.02057424    1.72138643    1.68676326      16
Cr    -1.67424903   -0.04849787    1.66483399      17
Cr     0.05127456   -0.85990781   -0.83059548      18
          18
Lattice="  24.8920   0.0000   0.0000   0.0000  24.8920   0.0000   0.0000   0.0000  24.8920 " ConfE="      -5945.3816" DelE="          0.2090"
Ni    -0.00627595    0.02806213   -3.65329305       1
Ni    -3.54394769    0.02626715   -0.06569298       2
Ni    -0.03848570    3.59672076   -0.04481776       3
Cr     0.02608838   -3.57973957   -0.05069962       4
Co     3.56229494    0.05309505   -0.11619392       5
Co     0.01170005    0.02272594    3.49820670       6
Ni    -1.75011117    0.02498603   -1.84200944       7
Cr     1.69417536   -0.00170192   -1.79451942       8
Cr     1.73466834   -1.69136375   -0.02147409       9
Ni    -0.01865243    1.77554321   -1.84149810      10
Ni     1.71612188    1.75696443   -0.06350345      11
Co    -1.70613018   -1.71924231   -0.08888529      12
Ni    -1.74815078    1.74445727   -0.03482055      13
Co     1.73318373   -0.00407523    1.64799984      14
Co    -0.00307365   -1.70837450    1.61346817      15
Co    -0.01502775    1.77821841    1.73819057      16
Cr    -1.73476140   -0.04301753    1.74873830      17
Cr     0.00942273   -1.72776292   -1.75495097      18
