          18
Lattice="  24.8920   0.0000   0.0000   0.0000  24.8920   0.0000   0.0000   0.0000  24.8920 " ConfE="      -5923.0648" DelE="          0.0000"
Cr    -3.52387093   -0.01767138    0.02321755       1
Co    -0.06083703   -3.47675361    0.01354240       2
Ni     0.00777083    0.02238879    3.55043368       3
Cr    -0.04045956   -0.00446820   -3.51092128       4
Cr     0.00743362    3.52566144   -0.00243042       5
Co     3.59458093   -0.02306829    0.00548660       6
Ni    -1.78288121   -0.04181249   -1.73195174       7
Co    -1.82677687   -0.02448874    1.73984994       8
Co    -0.07085062   -1.74997194    1.76611926       9
Co     0.02492264   -1.75113046   -1.75143396      10
Ni    -0.01386910    1.77745747    1.78804871      11
Co    -1.78054442    1.80015915   -0.00884518      12
Cr     1.74573601   -1.78216485    0.18125266      13
Co     1.81957524   -0.01135135    1.78774140      14
Cr     0.00566979    1.74500043   -1.72540755      15
Cr     1.80812676   -0.14914552   -1.67935295      16
Cr     1.81764121    1.72525067    0.05576764      17
Co     0.00000000    0.00000000    0.00000000      18
          18
Lattice="  24.8920   0.0000   0.0000   0.0000  24.8920   0.0000   0.0000   0.0000  24.8920 " ConfE="      -5921.7404" DelE="          1.3245"
Cr    -3.43649896   -0.01099427    0.00099357       1
Co    -0.02319205   -3.43609098    0.02520524       2
Ni     0.03178055    0.04014036    3.64545283       3
Cr    -0.03378502    0.01184318   -3.68712730       4
Cr    -0.00005500    3.49488876    0.00628532       5
Co     3.45597878    0.00119478   -0.00899252       6
Ni    -1.77361586    0.04043059   -1.93926893       7
Co    -1.77626442    0.04965792    1.91363920       8
Co     0.01971385   -1.75543669    1.94286826       9
Co     0.09159443   -1.72715662   -1.93107676      10
Ni    -0.03925574    1.79550543    1.90379546      11
Co    -1.67734103    1.65760357   -0.02165898      12
Cr     1.61641848   -1.74528591    0.14600829      13
Co     1.82784057   -0.00899426    1.91534432      14
Cr    -0.05403454    1.78661734   -1.87418585      15
Cr     1.84690281   -0.21362478   -1.85357072      16
Cr     0.91217096    0.83909686    0.01800867      17
Co    -1.02847282   -1.05268964    0.00123430      18
          18
Lattice="  24.8920   0.0000   0.0000   0.0000  24.8920   0.0000   0.0000   0.0000  24.8920 " ConfE="      -5923.0345" DelE="          0.0303"
Cr    -3.58002761    0.00793836    0.00211218       1
Co     0.01810200   -3.49816291    0.01409773       2
Ni     0.04518926    0.03425833    3.54398529       3
Cr    -0.00730749    0.01272460   -3.53684504       4
Cr     0.04607875    3.53281874    0.00603977       5
Co     3.53297256    0.03178211   -0.00141974       6
Ni    -1.76888406   -0.00062519   -1.76481319       7
Co    -1.78217712    0.01975129    1.78309937       8
Co    -0.00678312   -1.75732873    1.79875468       9
Co     0.09007286   -1.71764681   -1.77580296      10
Ni     0.03831834    1.78946826    1.75527550      11
Co    -1.79268275    1.77882685   -0.00677667      12
Cr     1.77548745   -1.82560722    0.08263614      13
Co     1.82699155    0.02576885    1.75095615      14
Cr     0.03089101    1.77916124   -1.70028077      15
Cr     1.81098202    0.11918897   -1.56736538      16
Cr     0.07630210    0.00888376    0.06997833      17
Co    -1.74365582   -1.75491267    0.00600107      18
