          18
Lattice="  24.8920   0.0000   0.0000   0.0000  24.8920   0.0000   0.0000   0.0000  24.8920 " ConfE="      -5930.7624" DelE="          0.0000"
Cr    -0.02579357   -0.06011982    3.49882122       1
Co     3.53881587   -0.04739844    0.00182896       2
Co    -0.00922666   -0.10346758   -3.60971357       3
Cr    -3.56875701   -0.06240252   -0.05556159       4
Cr    -0.04670468    3.54583679   -0.03130959       5
Ni     0.02576616   -3.59000913   -0.00191611       6
Cr     0.12861924    1.65023553    1.69930129       7
Co     0.07149247   -1.74690170    1.76157777       8
Cr     1.77231204    1.52039533   -0.08119125       9
Cr     1.76620758   -1.67621982    0.08632226      10
Ni    -1.80654199   -0.02385570    1.72596021      11
Co     1.76570498   -0.08007071   -1.84804714      12
Co    -1.79076801   -0.04489383   -1.79670799      13
Ni    -1.78846677    1.75975868   -0.01522103      14
Co    -1.78540914   -1.82021815   -0.02137414      15
Cr     0.00429119    1.72795792   -1.84183162      16
Ni     0.00064148   -1.80636237   -1.75115557      17
Co     0.00000000    0.00000000    0.00000000      18
          18
Lattice="  24.8920   0.0000   0.0000   0.0000  24.8920   0.0000   0.0000   0.0000  24.8920 " ConfE="      -5930.3773" DelE="          0.3851"
Cr     0.00037662   -0.07284086    3.43971534       1
Co     3.44610894   -0.02461831    0.02101061       2
Co    -0.00083873   -0.10633906   -3.61094638       3
Cr    -3.59263072   -0.06797287   -0.05237778       4
Cr    -0.09781224    3.59408765   -0.04485535       5
Ni    -0.00255813   -3.63289378   -0.00789704       6
Cr     0.02310076    1.78651074    1.72523908       7
Co     0.02842259   -1.85101221    1.79185386       8
Cr     1.80317510    1.88820513   -0.10440333       9
Cr     1.81455582   -1.91351985   -0.00023939      10
Ni    -1.76221604   -0.03359130    1.68577357      11
Co     1.76157374   -0.05846708   -1.81086019      12
Co    -1.77161666   -0.04741590   -1.77026994      13
Ni    -1.77681270    1.74407546   -0.02558550      14
Co    -1.78033668   -1.82083569   -0.02129085      15
Cr     0.03206102    1.64123834   -1.75146891      16
Ni     0.00551590   -1.77686735   -1.70848360      17
Co     0.66141380    0.00522740    0.45448658      18
          18
Lattice="  24.8920   0.0000   0.0000   0.0000  24.8920   0.0000   0.0000   0.0000  24.8920 " ConfE="      -5930.9933" DelE="         -0.2309"
Cr    -0.06165572   -0.07059724    3.56516159       1
Co     3.57280591   -0.03652547   -0.01835657       2
Co    -0.01500393   -0.10993971   -3.63358589       3
Cr    -3.59971304   -0.06996439   -0.07417800       4
Cr    -0.06101466    3.57569929   -0.04189490       5
Ni     0.01145821   -3.61712482   -0.02025794       6
Cr    -0.02214268    1.69328118    1.70012730       7
Co     0.02324208   -1.77372739    1.72003479       8
Cr     1.62618463    1.47834812   -0.10920561       9
Cr     1.72557318   -1.70025571    0.01844788      10
Ni    -1.76449037   -0.03766194    1.68085348      11
Co     1.74848150   -0.07789002   -1.81841795      12
Co    -1.78418895   -0.04553326   -1.79858882      13
Ni    -1.77018645    1.72734581   -0.04867013      14
Co    -1.78315316   -1.80889959   -0.04271098      15
Cr    -0.02048658    1.69483431   -1.84576849      16
Ni    -0.00764804   -1.77668456   -1.73401333      17
Co     1.72261899   -0.02356695    1.74105097      18
