          18
Lattice="  24.8920   0.0000   0.0000   0.0000  24.8920   0.0000   0.0000   0.0000  24.8920 " ConfE="      -5925.5835" DelE="          0.0000"
Co    -3.46990592   -0.02407454   -0.07467152       1
Co    -0.03675842   -0.03328421   -3.55103813       2
Co     3.63089707    0.00517883    0.00340069       3
Co     0.10194184    0.00236874    3.48630533       4
Cr     0.02784367   -3.61026347    0.02546202       5
Co     0.05525855    3.54687376   -0.02153624       6
Ni    -0.01606713   -1.74009528   -1.73239786       7
Ni    -0.00261468    1.74847478   -1.80116056       8
Ni    -1.76644440    1.74133841   -0.08805375       9
Cr    -1.83540516   -1.72927589    0.03418153      10
Ni     1.81961409   -0.00063131   -1.79660463      11
Ni     0.03828475   -1.79406254    1.74401793      12
Ni     1.81478212    1.77278346   -0.04651542      13
Co    -1.72310843    0.02565154    1.78611319      14
Co     1.82590136    0.00078585    1.73021336      15
Cr     1.87702340   -1.78405587    0.01178705      16
Cr     0.02840259    1.80799068    1.72361201      17
Cr     0.00000000    0.00000000    0.00000000      18
          18
Lattice="  24.8920   0.0000   0.0000   0.0000  24.8920   0.0000   0.0000   0.0000  24.8920 " ConfE="      -5924.7458" DelE="          0.8377"
Co    -3.43687169    0.00272033   -0.07698071       1
Co    -0.03934967   -0.03628150   -3.48136810       2
Co     3.63300514    0.00932476    0.00343850       3
Co     0.09126939   -0.01265259    3.49083461       4
Cr     0.12171576   -3.70763433    0.08706580       5
Co     0.06743711    3.63492602   -0.00043490       6
Ni     0.10091070   -1.96599106   -1.75703796       7
Ni     0.03277876    1.90012833   -1.80222214       8
Ni    -1.77182148    1.91460265   -0.03679345       9
Cr    -1.81241531   -1.93014535    0.04176185      10
Ni     1.73500028   -0.00240536   -1.75259733      11
Ni     0.01395547   -1.77050684    1.68192713      12
Ni     1.75924657    1.76461068   -0.04217487      13
Co    -1.68748021    0.03129616    1.69286459      14
Co     1.76581638   -0.00680577    1.66734544      15
Cr     1.81027154   -1.73727952    0.02082228      16
Cr    -0.00403470    1.72597427    1.65283468      17
Cr    -0.82530521   -0.04795697   -0.81370099      18
          18
Lattice="  24.8920   0.0000   0.0000   0.0000  24.8920   0.0000   0.0000   0.0000  24.8920 " ConfE="      -5925.6845" DelE="         -0.1009"
Co    -3.54076990   -0.01370826   -0.04769309       1
Co     0.01731724   -0.02502511   -3.58260474       2
Co     3.65777372    0.01344270    0.01598219       3
Co     0.09982071   -0.00652253    3.50803223       4
Cr     0.03766713   -3.63165050    0.03487086       5
Co     0.06308060    3.58906482   -0.01490869       6
Ni     0.03721503   -1.73633807   -1.67350249       7
Ni     0.03225482    1.75959043   -1.77202965       8
Ni    -1.72773309    1.74872764   -0.04689451       9
Cr    -1.80106513   -1.73342919    0.04932336      10
Ni     1.79525678   -0.00171077   -1.75030402      11
Ni     0.04907583   -1.77314293    1.71023159      12
Ni     1.79123111    1.76212560   -0.02086805      13
Co    -1.67896802    0.01126751    1.69506688      14
Co     1.79877277   -0.00212082    1.70253180      15
Cr     1.88245648   -1.76036854    0.04031178      16
Cr     0.03658705    1.77022998    1.71701985      17
Cr    -1.72559939   -0.00469024   -1.78715708      18
