          18
Lattice="  24.8920   0.0000   0.0000   0.0000  24.8920   0.0000   0.0000   0.0000  24.8920 " ConfE="      -5946.9951" DelE="          0.0000"
Cr    -0.00152791   -0.03815018   -3.53834601       1
Ni    -3.60856967   -0.00954168   -0.00872677       2
Co    -0.01914562    0.00708427    3.58452629       3
Co     3.50577472    0.02868021   -0.00780546       4
Cr    -0.02747757   -3.49134487   -0.04154533       5
Co    -0.02982770    3.53597164    0.00503690       6
Co    -0.05814376   -1.70523360   -1.79539858       7
Cr    -0.03418138    1.69741134   -1.76547908       8
Ni    -1.81549931   -1.71200657   -0.04109588       9
Ni    -1.80702014    1.70992308   -0.03578999      10
Co     1.76877429   -0.01058572   -1.79159283      11
Co    -1.79712021    0.01541070    1.82492681      12
Co     1.73608178    0.02207831    1.80543060      13
Ni     1.77654195   -1.75521095    0.00062556      14
Cr     1.75053127    1.75865009   -0.00995574      15
Cr    -0.06003230   -1.74253812    1.79581101      16
Co    -0.03286542    1.77039846    1.79424492      17
Cr     0.00000000    0.00000000    0.00000000      18
          18
Lattice="  24.8920   0.0000   0.0000   0.0000  24.8920   0.0000   0.0000   0.0000  24.8920 " ConfE="      -5945.9598" DelE="          1.0352"
Cr     0.05672280   -0.06025006   -3.57859324       1
Ni    -3.54444922   -0.00799500   -0.01355610       2
Co    -0.03473674    0.01666988    3.59055688       3
Co     3.48414311    0.02275910   -0.03237074       4
Cr    -0.00751797   -3.59120065    0.01189926       5
Co    -0.01338288    3.63897453    0.05578119       6
Co    -0.00403991   -1.91482083   -1.80159043       7
Cr     0.04572637    2.02231859   -1.74776151       8
Ni    -1.82785846   -1.84566191   -0.02668667       9
Ni    -1.81913970    1.87260435    0.04980345      10
Co     1.62326281    0.01129442   -1.76665096      11
Co    -1.74559491    0.01583501    1.72800580      12
Co     1.67630923    0.02469305    1.76467469      13
Ni     1.69276934   -1.71833365   -0.00692982      14
Cr     1.61850505    1.64554054   -0.00377566      15
Cr    -0.11055369   -1.65609440    1.68850512      16
Co    -0.03199151    1.76636648    1.75351117      17
Cr    -0.94426814    0.05700190   -1.09783211      18
          18
Lattice="  24.8920   0.0000   0.0000   0.0000  24.8920   0.0000   0.0000   0.0000  24.8920 " ConfE="      -5946.8276" DelE="          0.1674"
Cr     0.02651931   -0.04580488   -3.59832445       1
Ni    -3.62076041   -0.00751923   -0.00087017       2
Co    -0.01884016    0.02331137    3.61828454       3
Co     3.51704606    0.02329763   -0.01262655       4
Cr    -0.02631229   -3.52652749   -0.01631322       5
Co    -0.02308229    3.57834052    0.01164068       6
Co    -0.05063054   -1.73853789   -1.77783088       7
Cr     0.01431366    1.68633170   -1.69341669       8
Ni    -1.78119170   -1.71580534   -0.00375019       9
Ni    -1.77194962    1.71283234   -0.00605938      10
Co     1.66617824    0.00523375   -1.74498800      11
Co    -1.76588908    0.01241164    1.79611148      12
Co     1.68699484    0.03386854    1.77470864      13
Ni     1.70852381   -1.71601295    0.01754679      14
Cr     1.70993270    1.70582405    0.01321380      15
Cr    -0.08041234   -1.68167981    1.78723420      16
Co    -0.02919497    1.75731811    1.76875923      17
Cr    -1.76200240   -0.00510681   -1.79906497      18
