          18
Lattice="  24.8920   0.0000   0.0000   0.0000  24.8920   0.0000   0.0000   0.0000  24.8920 " ConfE="      -5924.8300" DelE="          0.0000"
Cr    -0.01940198   -0.01586576   -3.43328310       1
Cr    -3.46713174    0.00373376   -0.05021427       2
Cr    -0.00257008    3.53854036    0.01656295       3
Co     0.04203888   -0.00432053    3.60301451       4
Cr    -0.03182901   -3.46452172   -0.06646758       5
Cr     3.53611244   -0.01587585    0.07562462       6
Ni     0.00064333    1.74315390   -1.75557171       7
Cr    -1.75705960    1.73612517   -0.03500761       8
Ni    -1.76172590    0.00583816    1.81533487       9
Co    -1.78382061   -1.70031088   -0.06455508      10
Cr    -0.01434529   -1.72837148   -1.77446031      11
Ni    -0.00090526    1.77487793    1.81549726      12
Ni     1.78418846   -1.75746707    0.03115624      13
Co     1.84248154   -0.00818426   -1.73250989      14
Co     1.76276951    1.79183734    0.03631038      15
Cr     0.03334465   -1.76179712    1.75380430      16
Co     1.76986263   -0.00407538    1.81963731      17
Ni     0.00000000    0.00000000    0.00000000      18
          18
Lattice="  24.8920   0.0000   0.0000   0.0000  24.8920   0.0000   0.0000   0.0000  24.8920 " ConfE="      -5924.3421" DelE="          0.4879"
Cr    -0.02139744    0.00171126   -3.35818638       1
Cr    -3.39823633    0.02225181   -0.07663868       2
Cr     0.05273851    3.59945799    0.03611720       3
Co     0.03133043    0.00140620    3.60775004       4
Cr    -0.01922281   -3.52184343   -0.04282232       5
Cr     3.55597366   -0.01978703    0.07199158       6
Ni     0.04989252    1.89180101   -1.77834832       7
Cr    -1.74514754    1.94819524    0.00286610       8
Ni    -1.74007184    0.03537511    1.75585160       9
Co    -1.81111790   -1.93363519    0.00013676      10
Cr     0.05304581   -1.87380798   -1.80762127      11
Ni    -0.00007457    1.79435154    1.81253585      12
Ni     1.77001644   -1.75207816    0.01308068      13
Co     1.77710904    0.00667817   -1.71467802      14
Co     1.72350429    1.76335661    0.03883216      15
Cr     0.00572980   -1.66031489    1.63228733      16
Co     1.70332569   -0.01713077    1.77929094      17
Ni    -0.64852067   -0.02632816   -0.59676315      18
          18
Lattice="  24.8920   0.0000   0.0000   0.0000  24.8920   0.0000   0.0000   0.0000  24.8920 " ConfE="      -5924.9822" DelE="         -0.1522"
Cr     0.01950916   -0.00415171   -3.49607249       1
Cr    -3.55855904    0.01021610    0.00983189       2
Cr     0.01363337    3.57353620    0.03164164       3
Co     0.03868411   -0.00258278    3.62062079       4
Cr    -0.01764529   -3.50976784   -0.04868752       5
Cr     3.55456332   -0.01399661    0.07613747       6
Ni     0.03282420    1.75497116   -1.72367603       7
Cr    -1.71392530    1.77607684    0.01300441       8
Ni    -1.74024778    0.02099219    1.76784135       9
Co    -1.68812631   -1.73510540    0.00610513      10
Cr     0.04860570   -1.72820984   -1.72056884      11
Ni    -0.00052732    1.75728109    1.80169681      12
Ni     1.76738484   -1.73480120    0.03582798      13
Co     1.78366079   -0.00951388   -1.71280561      14
Co     1.73739167    1.75864471    0.05076279      15
Cr     0.02862041   -1.69451539    1.68438490      16
Co     1.72700479   -0.01650882    1.80042287      17
Ni    -1.71506704    0.01585248   -1.71297820      18
