          18
Lattice="  24.8920   0.0000   0.0000   0.0000  24.8920   0.0000   0.0000   0.0000  24.8920 " ConfE="      -5940.3149" DelE="          0.0000"
Ni     3.55053835    0.04837863    0.03246602       1
Ni     0.03583204    0.02759719   -3.53846237       2
Co     0.07440722    3.58534227   -0.03902925       3
Cr     0.03837458   -0.02447902    3.61963386       4
Co    -0.01967418   -3.50921062   -0.00839404       5
Co    -3.55079467   -0.00641686   -0.01304066       6
Ni     0.05803781    1.77803549    1.73207103       7
Ni     0.05987451    1.79695403   -1.73390399       8
Co     1.81063031    0.07888137    1.79524118       9
Ni     1.78735303   -1.75025274   -0.00101992      10
Ni     0.04138587   -1.72765595    1.79334373      11
Ni    -1.77126312    1.77347111   -0.00162583      12
Co     1.80429324    0.07293401   -1.74130881      13
Ni     0.04776919   -1.75312350   -1.76200822      14
Co    -1.77276517    0.03201687    1.80083875      15
Cr    -1.76593110   -1.69097290   -0.00345827      16
Co    -1.77818523    0.01028540   -1.80715654      17
Cr     0.00000000    0.00000000    0.00000000      18
          18
Lattice="  24.8920   0.0000   0.0000   0.0000  24.8920   0.0000   0.0000   0.0000  24.8920 " ConfE="      -5939.6103" DelE="          0.7047"
Ni     3.50799542    0.06128594    0.03042951       1
Ni     0.03296537    0.01223538   -3.58567557       2
Co     0.10930605    3.49829420   -0.04896937       3
Cr    -0.00317273   -0.04184903    3.72029283       4
Co    -0.02108446   -3.51339888   -0.01591278       5
Co    -3.55987258   -0.00206643   -0.01806434       6
Ni     0.01561996    1.79183322    1.87650764       7
Ni     0.00246769    1.81187443   -1.89340970       8
Co     1.82305157    0.05720998    1.91093557       9
Ni     1.76698145   -1.70211265    0.00224698      10
Ni     0.02915958   -1.65708800    1.75503106      11
Ni    -1.69371023    1.73539079   -0.00377317      12
Co     1.85190432    0.05725436   -1.87997310      13
Ni     0.06155884   -1.68136395   -1.71512148      14
Co    -1.75559700    0.04201272    1.79191605      15
Cr    -1.71722004   -1.62166410   -0.01504604      16
Co    -1.75054236    0.00857693   -1.78078392      17
Cr     0.82799700    0.74064693   -0.03219037      18
          18
Lattice="  24.8920   0.0000   0.0000   0.0000  24.8920   0.0000   0.0000   0.0000  24.8920 " ConfE="      -5940.4463" DelE="         -0.1313"
Ni     3.60240804    0.02479763    0.02048918       1
Ni     0.03250818    0.02383372   -3.55074546       2
Co     0.03735753    3.60992824   -0.02603099       3
Cr     0.02688232   -0.04145476    3.63934246       4
Co    -0.02693450   -3.53665109   -0.01775287       5
Co    -3.59100527   -0.01410035   -0.01171430       6
Ni     0.02940705    1.74338037    1.74297939       7
Ni     0.02122262    1.77745265   -1.74489818       8
Co     1.81334209    0.06392045    1.80152060       9
Ni     1.76068990   -1.69694459   -0.00367105      10
Ni     0.01570612   -1.69124934    1.75070103      11
Ni    -1.74284650    1.73854974   -0.00401064      12
Co     1.81517621    0.09072185   -1.74211658      13
Ni     0.03477803   -1.71060793   -1.71535202      14
Co    -1.78017962    0.02294138    1.78276205      15
Cr    -1.77414727   -1.67789606   -0.01405554      16
Co    -1.77540518   -0.00172231   -1.77876486      17
Cr     1.75814343    1.74982464   -0.02107058      18
