          18
Lattice="  24.8920   0.0000   0.0000   0.0000  24.8920   0.0000   0.0000   0.0000  24.8920 " ConfE="      -5936.8133" DelE="          0.0000"
Co    -3.49607751   -0.06859176   -0.02702305       1
Co     0.01745167   -0.02223679    3.47668531       2
Co     3.62268747   -0.07634983   -0.07664562       3
Co     0.05396150   -0.10027454   -3.62702770       4
Co     0.01666873   -3.64380187   -0.06633327       5
Cr     0.07122291    3.44019549   -0.02168539       6
Ni    -1.71151367   -1.80298032   -0.02745263       7
Cr    -1.69545402    1.62594522    0.01464998       8
Ni     0.03277844   -1.78840399    1.71054275       9
Cr     0.04089310    1.69347837    1.71615697      10
Ni    -1.73182438   -0.07166911   -1.84645907      11
Ni     1.84695715   -0.06531638    1.70428093      12
Co     1.82332253   -0.11359354   -1.82746912      13
Co     0.04543677   -1.84538604   -1.80770673      14
Ni     0.02637804    1.68431698   -1.82667743      15
Cr     1.80261374   -1.81967940   -0.09716790      16
Co     1.82292492    1.68457597   -0.08824910      17
Co     0.00000000    0.00000000    0.00000000      18
          18
Lattice="  24.8920   0.0000   0.0000   0.0000  24.8920   0.0000   0.0000   0.0000  24.8920 " ConfE="      -5936.1670" DelE="          0.6462"
Co    -3.42341304   -0.07127481    0.00991559       1
Co    -0.00881059   -0.03498262    3.43068540       2
Co     3.61316856   -0.06960620   -0.07170169       3
Co     0.05250259   -0.10478807   -3.61769526       4
Co     0.03230619   -3.71012242   -0.07276111       5
Cr     0.07191722    3.49425423   -0.02505730       6
Ni    -1.71683350   -1.91759840   -0.05766300       7
Cr    -1.76238596    1.79874458   -0.06750557       8
Ni     0.06398811   -1.94222767    1.72316102       9
Cr     0.11507352    1.86033300    1.81967097      10
Ni    -1.69824957   -0.07380006   -1.78467606      11
Ni     1.78698747   -0.08286726    1.68086988      12
Co     1.79214485   -0.12243802   -1.78330385      13
Co     0.05140039   -1.85577133   -1.78935889      14
Ni     0.01043194    1.66730652   -1.78287948      15
Cr     1.74296104   -1.79658865   -0.10667897      16
Co     1.73461810    1.65212411   -0.05374820      17
Co    -0.66488682    0.06628406    0.75593657      18
          18
Lattice="  24.8920   0.0000   0.0000   0.0000  24.8920   0.0000   0.0000   0.0000  24.8920 " ConfE="      -5936.8642" DelE="         -0.0509"
Co    -3.55255985   -0.06626092   -0.05442352       1
Co     0.03869124   -0.03231950    3.50980404       2
Co     3.63213457   -0.07102635   -0.08193895       3
Co     0.05368478   -0.10535623   -3.63237963       4
Co     0.02487587   -3.66983348   -0.07305731       5
Cr     0.08246930    3.49754369   -0.02846515       6
Ni    -1.68996620   -1.81452891   -0.06372020       7
Cr    -1.67546424    1.63350328   -0.00322665       8
Ni     0.06184966   -1.78880674    1.66124220       9
Cr     0.05595509    1.69408738    1.66425441      10
Ni    -1.71478574   -0.07126564   -1.80390407      11
Ni     1.79931432   -0.07045280    1.66767971      12
Co     1.81273228   -0.12603230   -1.80787319      13
Co     0.06143573   -1.84078874   -1.79479837      14
Ni     0.01712894    1.65246339   -1.78324152      15
Cr     1.79517981   -1.80857500   -0.13138230      16
Co     1.77227645    1.64924751   -0.08393358      17
Co    -1.68387507   -0.00502191    1.63539108      18
