          18
Lattice="  24.8920   0.0000   0.0000   0.0000  24.8920   0.0000   0.0000   0.0000  24.8920 " ConfE="      -5945.1239" DelE="          0.0000"
Ni    -3.54049759   -0.02387024   -0.00853995       1
Co    -0.04261616    3.48175918    0.02462436       2
Cr     3.56889868   -0.04080245    0.06254799       3
Ni     0.01921156   -3.57450788    0.00783902       4
Cr    -0.01504354   -0.02554831   -3.53507762       5
Cr    -0.03957148   -0.03521681    3.58625763       6
Co    -1.77919383    0.00246392   -1.77520287       7
Ni    -1.73425390    0.02965225    1.74023683       8
Ni    -0.02830285    1.73920337   -1.75072021       9
Cr    -0.05588620    1.83513475    1.70566847      10
Ni    -1.76670611   -1.81038805    0.01134840      11
Ni     1.81306303    1.75715226   -0.00601915      12
Ni     1.78229956   -1.79752700    0.01373943      13
Cr    -0.03405379   -1.74096596   -1.80884221      14
Co     0.00912979   -1.82661189    1.80140637      15
Cr     1.76963330   -0.05521127   -1.75435337      16
Ni     1.75425523   -0.00798356    1.79198796      17
Ni     0.00000000    0.00000000    0.00000000      18
          18
Lattice="  24.8920   0.0000   0.0000   0.0000  24.8920   0.0000   0.0000   0.0000  24.8920 " ConfE="      -5944.3290" DelE="          0.7950"
Ni    -3.48353999    0.00041953   -0.00639778       1
Co    -0.04785249    3.47401313    0.01463839       2
Cr     3.57526230   -0.01820325    0.07281431       3
Ni     0.01511634   -3.55474696    0.00948606       4
Cr    -0.00835083   -0.02979913   -3.62746074       5
Cr     0.00604819   -0.06970686    3.64546930       6
Co    -1.77678936   -0.06571633   -1.93001962       7
Ni    -1.79831195   -0.06814988    1.92637466       8
Ni     0.01184528    1.76302501   -1.90203187       9
Cr     0.01193525    1.79587461    1.91786523      10
Ni    -1.71867941   -1.72839042    0.01050677      11
Ni     1.70826950    1.70248403    0.00089270      12
Ni     1.73584563   -1.73664060    0.00846594      13
Cr    -0.03388113   -1.67629933   -1.78776257      14
Co     0.00598719   -1.78531834    1.80881600      15
Cr     1.69869194   -0.04177830   -1.73522659      16
Ni     1.74885625   -0.01469385    1.80150009      17
Ni    -0.85082216    0.83574812    0.03996496      18
          18
Lattice="  24.8920   0.0000   0.0000   0.0000  24.8920   0.0000   0.0000   0.0000  24.8920 " ConfE="      -5945.1582" DelE="         -0.0342"
Ni    -3.56483798   -0.04915096   -0.00794783       1
Co     0.00356319    3.54641945   -0.00104905       2
Cr     3.58467221   -0.03959107    0.07516374       3
Ni     0.02010069   -3.58842996    0.00361750       4
Cr    -0.00909006   -0.03491983   -3.58260580       5
Cr    -0.02731787   -0.05163375    3.61910762       6
Co    -1.70335313   -0.06507300   -1.77516159       7
Ni    -1.70750437   -0.01382448    1.74402520       8
Ni    -0.00043737    1.70942278   -1.75520786       9
Cr    -0.01974320    1.76545073    1.74024049      10
Ni    -1.74160640   -1.78949620    0.00930119      11
Ni     1.76110219    1.71781465   -0.00443235      12
Ni     1.74698140   -1.76894979    0.00472345      13
Cr    -0.02521450   -1.70667950   -1.78106034      14
Co     0.01246642   -1.81742232    1.79025106      15
Cr     1.72781785   -0.06971339   -1.72523281      16
Ni     1.72405835   -0.01838036    1.77158779      17
Ni    -1.75239442    1.72374256   -0.01390490      18
