          18
Lattice="  24.8920   0.0000   0.0000   0.0000  24.8920   0.0000   0.0000   0.0000  24.8920 " ConfE="      -5943.5571" DelE="          0.0000"
Ni    -3.40662559   -0.02524828    0.03574276       1
Ni     0.08555556    3.54108410    0.06013571       2
Ni     3.62510845   -0.01332030    0.09194690       3
Cr     0.02775225   -0.03167899   -3.42620911       4
Co     0.07305586   -3.58177211    0.05751737       5
Cr     0.09027005   -0.04765488    3.63007373       6
Cr    -1.66314269   -1.81620035   -0.00468990       7
Co     0.04785620   -1.72137317   -1.67336601       8
Cr    -1.66833885    1.76825672    0.05555112       9
Ni     1.87731390   -0.01704559   -1.70099180      10
Cr     0.01827089    1.71165679   -1.73157678      11
Ni     1.84610873    1.75418895    0.07153409      12
Cr    -1.63849946   -0.02358912    1.87683886      13
Co     0.03668750   -1.79866084    1.79119150      14
Cr     1.76415082   -1.76317207    0.11689501      15
Co     0.05788261    1.76840711    1.84948604      16
Co     1.78177870   -0.01472289    1.83562817      17
Cr     0.00000000    0.00000000    0.00000000      18
          18
Lattice="  24.8920   0.0000   0.0000   0.0000  24.8920   0.0000   0.0000   0.0000  24.8920 " ConfE="      -5943.0071" DelE="          0.5500"
Ni    -3.34900295   -0.02687989    0.04605892       1
Ni     0.09399905    3.58104148    0.08848252       2
Ni     3.59538862   -0.00522829    0.07190837       3
Cr     0.06083150   -0.05570718   -3.49598207       4
Co     0.08408907   -3.65755371    0.06727120       5
Cr     0.08417277   -0.04141767    3.62354218       6
Cr    -1.61242200   -1.94948521    0.02582472       7
Co     0.09519530   -1.84766653   -1.69447877       8
Cr    -1.72698695    1.93436352    0.16035685       9
Ni     1.76835515    0.01685670   -1.69737067      10
Cr     0.09953082    1.99709924   -1.80255929      11
Ni     1.78684680    1.74609512    0.05555719      12
Cr    -1.57766196    0.00063261    1.83881841      13
Co     0.01031116   -1.77805922    1.74145858      14
Cr     1.63353231   -1.66732354    0.09489329      15
Co     0.02608102    1.74600808    1.81254847      16
Co     1.72676569   -0.02059240    1.78869305      17
Cr    -0.79687017    0.09786397   -0.86915902      18
          18
Lattice="  24.8920   0.0000   0.0000   0.0000  24.8920   0.0000   0.0000   0.0000  24.8920 " ConfE="      -5943.5250" DelE="          0.0322"
Ni    -3.46669833   -0.02234565    0.08212684       1
Ni     0.09830852    3.56279601    0.06522250       2
Ni     3.62639074   -0.01248869    0.09965324       3
Cr     0.11699986   -0.06149521   -3.50185922       4
Co     0.08056618   -3.62764732    0.07176170       5
Cr     0.09597884   -0.03821464    3.63934150       6
Cr    -1.56768025   -1.78674412    0.05396985       7
Co     0.08455741   -1.73521985   -1.63534080       8
Cr    -1.58620706    1.72854856    0.09110662       9
Ni     1.82831861   -0.01313422   -1.66482469      10
Cr     0.06825442    1.71357657   -1.71101452      11
Ni     1.82866026    1.73828788    0.08468016      12
Cr    -1.57129834   -0.01720650    1.79888609      13
Co     0.04953930   -1.78295965    1.76991819      14
Cr     1.72627914   -1.73097783    0.14795119      15
Co     0.06035210    1.74574145    1.83054432      16
Co     1.76874500   -0.03231938    1.82422758      17
Cr    -1.64292385   -0.01742792   -1.64412192      18
