          18
Lattice="  24.8920   0.0000   0.0000   0.0000  24.8920   0.0000   0.0000   0.0000  24.8920 " ConfE="      -5922.6369" DelE="          0.0000"
Cr     0.05740693   -3.39012110    0.06015554       1
Cr     0.00108871   -0.05571722    3.53185190       2
Cr     0.00362784    3.56470140   -0.04742112       3
Co     0.02071355   -0.04239794   -3.59570041       4
Co    -3.57409440   -0.02387213   -0.00571747       5
Ni     3.51414411   -0.03061673   -0.03909773       6
Ni    -1.74939841   -1.76998373   -0.00990375       7
Co     1.71441891   -1.80201088   -0.01222611       8
Ni    -1.73545502   -0.07159506    1.76241268       9
Ni     1.73194799   -0.06251591    1.75199355      10
Co     0.00386129   -1.80716105   -1.84759161      11
Cr     0.02440308    1.79526755    1.67172221      12
Ni    -0.01403069    1.73608785   -1.81569034      13
Ni    -1.79691240   -0.03246163   -1.82047330      14
Co     1.75762803   -0.03088468   -1.82455311      15
Cr    -1.76953453    1.69161759   -0.01656204      16
Cr     1.75630135    1.73837229   -0.08599347      17
Co     0.00000000    0.00000000    0.00000000      18
          18
Lattice="  24.8920   0.0000   0.0000   0.0000  24.8920   0.0000   0.0000   0.0000  24.8920 " ConfE="      -5921.8222" DelE="          0.8147"
Cr     0.05232049   -3.34385003    0.04439192       1
Cr    -0.02551424   -0.06755657    3.44770463       2
Cr     0.03104980    3.57337366   -0.02546724       3
Co     0.03092666   -0.06934682   -3.56250626       4
Co    -3.68543331   -0.00339233   -0.05615097       5
Ni     3.60203844   -0.01904092   -0.04364146       6
Ni    -1.92465402   -1.76956121   -0.05288585       7
Co     1.86520885   -1.80306292   -0.03096319       8
Ni    -1.98642327    0.05299074    1.72860188       9
Ni     1.93489690   -0.00010522    1.78093577      10
Co    -0.00621753   -1.75327500   -1.67667552      11
Cr     0.02335129    1.65440598    1.63038189      12
Ni    -0.01107010    1.68271153   -1.75945128      13
Ni    -1.81059343   -0.02966118   -1.78098579      14
Co     1.76878689   -0.02887742   -1.75829599      15
Cr    -1.73899975    1.67603030   -0.03894532      16
Cr     1.71362773    1.63595903   -0.07622321      17
Co    -0.02073998   -0.98946981    1.05612671      18
          18
Lattice="  24.8920   0.0000   0.0000   0.0000  24.8920   0.0000   0.0000   0.0000  24.8920 " ConfE="      -5922.6029" DelE="          0.0340"
Cr     0.04350362   -3.45080392   -0.00290060       1
Cr    -0.00123550   -0.02962497    3.58046741       2
Cr     0.01783361    3.61469685   -0.05042327       3
Co     0.02494853   -0.04845359   -3.60197376       4
Co    -3.59383913   -0.02089033   -0.01738102       5
Ni     3.53192638   -0.02347952   -0.04427862       6
Ni    -1.74662414   -1.75154828   -0.03289625       7
Co     1.70591884   -1.77827339   -0.03602876       8
Ni    -1.74364079   -0.00564616    1.71311004       9
Ni     1.72020491   -0.02654335    1.71377117      10
Co     0.00600946   -1.80375237   -1.81989255      11
Cr     0.01772152    1.76763385    1.62938444      12
Ni    -0.01243590    1.71104146   -1.78205468      13
Ni    -1.78112697   -0.02645604   -1.80214147      14
Co     1.74399423   -0.03043406   -1.79789186      15
Cr    -1.73274249    1.70455682   -0.03397100      16
Cr     1.71303284    1.71193068   -0.09565126      17
Co    -0.02956467   -1.76371742    1.75938790      18
