          18
Lattice="  24.8920   0.0000   0.0000   0.0000  24.8920   0.0000   0.0000   0.0000  24.8920 " ConfE="      -5929.2790" DelE="          0.0000"
Ni     3.50240365    0.02499244    0.00728971       1
Ni     0.00650697   -3.47504041    0.00261014       2
Ni    -0.03199318    3.59629999    0.00481558       3
Ni    -3.60617016    0.00005304   -0.01011625       4
Ni    -0.05152718    0.07180982    3.54196426       5
Cr    -0.09160433   -0.01414620   -3.50975189       6
Co     1.76032944   -0.01612273   -1.76978595       7
Co    -0.01087371   -1.73829527   -1.80130957       8
Ni    -0.01776762    1.79199917   -1.73749657       9
Co    -0.01487521   -1.74744219    1.78229838      10
Co     1.73864171    0.03459678    1.76748476      11
Ni    -1.81677860    0.03582689    1.73365026      12
Co    -1.82782361    0.03667749   -1.78051480      13
Cr     1.77643523    1.81832564    0.02600468      14
Co    -1.81811808   -1.78263662   -0.01228979      15
Cr    -1.85198078    1.80782611   -0.01832383      16
Co    -0.01957160    1.81164379    1.74462497      17
Ni     0.00000000    0.00000000    0.00000000      18
          18
Lattice="  24.8920   0.0000   0.0000   0.0000  24.8920   0.0000   0.0000   0.0000  24.8920 " ConfE="      -5928.6040" DelE="          0.6750"
Ni     3.44802652    0.03543766    0.00964116       1
Ni     0.02918893   -3.43271428   -0.00024079       2
Ni    -0.01821031    3.60106929    0.00210144       3
Ni    -3.58481879   -0.01060098   -0.00182688       4
Ni    -0.07182439    0.07202185    3.61241686       5
Cr    -0.12410057   -0.00689923   -3.59747803       6
Co     1.75690499    0.05757169   -1.98835713       7
Co    -0.06487726   -1.77387457   -1.96132254       8
Ni    -0.01582297    1.76457392   -1.75583959       9
Co    -0.05807967   -1.79327791    1.92733780      10
Co     1.75382625    0.08475647    1.95286111      11
Ni    -1.78019828    0.00978989    1.73894289      12
Co    -1.78403986    0.02322452   -1.76844874      13
Cr     1.63368553    1.67608655    0.03880368      14
Co    -1.73954169   -1.74152598   -0.01537475      15
Cr    -1.71673063    1.71161153   -0.00719506      16
Co    -0.01794908    1.75973032    1.71217554      17
Ni     0.98117647   -0.91913149   -0.02001678      18
          18
Lattice="  24.8920   0.0000   0.0000   0.0000  24.8920   0.0000   0.0000   0.0000  24.8920 " ConfE="      -5929.1807" DelE="          0.0982"
Ni     3.54770885    0.04987334    0.00447249       1
Ni    -0.02172521   -3.52540690    0.00232555       2
Ni    -0.03326058    3.62186835    0.00568729       3
Ni    -3.62206695   -0.00635420   -0.00905190       4
Ni    -0.05148171    0.07709049    3.54275302       5
Cr    -0.10505392    0.00985176   -3.54701535       6
Co     1.73053538    0.03940421   -1.78260597       7
Co    -0.04178951   -1.71209109   -1.80593276       8
Ni    -0.03078123    1.75744420   -1.68482047       9
Co    -0.03712473   -1.73141120    1.77480958      10
Co     1.69935195    0.09118000    1.72294044      11
Ni    -1.79315717    0.03544697    1.69548278      12
Co    -1.81487057    0.04226878   -1.75748103      13
Cr     1.72227567    1.75987955    0.04830429      14
Co    -1.77095376   -1.75547005   -0.01946620      15
Cr    -1.83804857    1.78987673   -0.02264578      16
Co    -0.03335671    1.78770865    1.68442472      17
Ni     1.70517674   -1.67837286   -0.01663561      18
