          18
Lattice="  24.8920   0.0000   0.0000   0.0000  24.8920   0.0000   0.0000   0.0000  24.8920 " ConfE="      -5936.7477" DelE="          0.0000"
Co     0.03452253   -3.41425556    0.00551503       1
Ni     0.00023038    0.06342509    3.49735067       2
Cr     0.01426256    3.56570900    0.03271287       3
Co     0.00275303    0.05552685   -3.56831340       4
Co    -3.54419512    0.06054591   -0.03343824       5
Cr     3.55565922    0.03312875   -0.04789945       6
Cr    -1.61604999   -1.64125035   -0.05925779       7
Co     1.73112013   -1.74071825    0.00790729       8
Co    -1.74965092    0.03775267    1.69643860       9
Ni     1.76145227    0.05612264    1.74984071      10
Cr    -0.00576455   -1.64832640   -1.86764044      11
Co     0.00352483    1.88035497    1.72184482      12
Ni     0.00854994    1.82448822   -1.78267130      13
Ni    -1.77387304    0.09967463   -1.79746391      14
Co     1.77521322    0.03087641   -1.78487386      15
Co    -1.77686358    1.82666941   -0.00497027      16
Ni     1.78646899    1.80411178   -0.01579903      17
Co     0.00000000    0.00000000    0.00000000      18
          18
Lattice="  24.8920   0.0000   0.0000   0.0000  24.8920   0.0000   0.0000   0.0000  24.8920 " ConfE="      -5936.2687" DelE="          0.4790"
Co     0.04247559   -3.38683375    0.00909566       1
Ni    -0.01190595    0.05965019    3.46384779       2
Cr     0.02446610    3.57624965    0.04238744       3
Co     0.00109638    0.04521248   -3.55507070       4
Co    -3.59998970    0.06862638   -0.04905811       5
Cr     3.65679865    0.06622571   -0.05798510       6
Cr    -1.91797923   -1.71251522   -0.14828132       7
Co     1.92871537   -1.76608344   -0.02835404       8
Co    -1.92643600    0.13816526    1.73651076       9
Ni     1.84607357    0.07570655    1.74699534      10
Cr    -0.00209254   -1.61410882   -1.76512919      11
Co    -0.01611228    1.78822052    1.66855564      12
Ni     0.00840532    1.79372180   -1.73982827      13
Ni    -1.75659191    0.09352884   -1.74415511      14
Co     1.75504860    0.00780285   -1.74628815      15
Co    -1.78896596    1.82732280   -0.01184882      16
Ni     1.78333418    1.76942002   -0.00999398      17
Co    -0.10406020   -0.91233034    0.76578617      18
          18
Lattice="  24.8920   0.0000   0.0000   0.0000  24.8920   0.0000   0.0000   0.0000  24.8920 " ConfE="      -5936.8052" DelE="         -0.0574"
Co     0.04450269   -3.48771859   -0.02974967       1
Ni    -0.00737806    0.08084639    3.51717820       2
Cr     0.02535035    3.59926268    0.03446667       3
Co    -0.00143572    0.05305699   -3.57896733       4
Co    -3.56249969    0.06548385   -0.04079848       5
Cr     3.59748663    0.05034596   -0.05881304       6
Cr    -1.61364530   -1.63212575   -0.06425780       7
Co     1.71658456   -1.69664743   -0.05403345       8
Co    -1.74465742    0.07532765    1.65038628       9
Ni     1.76054162    0.08142010    1.72443690      10
Cr     0.00845042   -1.62752089   -1.78748831      11
Co    -0.00289865    1.85907634    1.69725406      12
Ni     0.00548003    1.81307913   -1.75762874      13
Ni    -1.73359874    0.09120528   -1.75577780      14
Co     1.74460261    0.03207655   -1.77105955      15
Co    -1.76360347    1.83274998   -0.01189464      16
Ni     1.76211566    1.78314369   -0.01651626      17
Co    -0.02136811   -1.65341543    1.63101867      18
