          19
Lattice="  24.8920   0.0000   0.0000   0.0000  24.8920   0.0000   0.0000   0.0000  24.8920 " ConfE="      -5933.2325" DelE="          0.0000"
Cr     0.01844698    2.50726306   -2.52102373       1
Cr    -0.00093927   -0.07341429    3.62945638       2
Ni     0.00631640   -3.58458233    0.08746407       3
Co    -0.00853647    0.01464920   -3.42820732       4
Ni     0.00525137    3.48703186    0.01575789       5
Ni    -3.55744932   -0.05260446    0.07507876       6
Co     3.49597178    0.01324112    0.03333675       7
Cr    -1.74749535    1.76622630   -0.07413874       8
Cr     1.70691254    1.72400486   -0.08496314       9
Ni    -1.78599870   -0.03488012   -1.69406501      10
Cr     1.72674441    0.10073487   -1.80228521      11
Ni     0.00400398   -1.81811438    1.84406064      12
Ni    -1.76855177   -0.02575319    1.83102251      13
Co     1.72460205    0.02133121    1.84127045      14
Ni    -1.78020302   -1.82496748    0.07361026      15
Ni     1.76286233   -1.75380513    0.02222197      16
Ni    -0.03573022    1.73959821    1.82085392      17
Co    -0.01176777   -1.80540873   -1.72278492      18
Ni     0.00000000    0.00000000    0.00000000      19
          19
Lattice="  24.8920   0.0000   0.0000   0.0000  24.8920   0.0000   0.0000   0.0000  24.8920 " ConfE="      -5932.7552" DelE="          0.4773"
Cr     0.00650755    2.57652152   -2.58829449       1
Cr    -0.02331181   -0.07006956    3.64003030       2
Ni     0.01003150   -3.57477338    0.08277239       3
Co    -0.02885027    0.03173468   -3.41316773       4
Ni    -0.00395649    3.44682311   -0.00295419       5
Ni    -3.60925232   -0.08591480    0.09573283       6
Co     3.52497225    0.02199865    0.03161094       7
Cr    -1.95629672    1.78899654   -0.01698903       8
Cr     1.92269804    1.81322546    0.01026897       9
Ni    -1.91274499   -0.09248263   -1.70961090      10
Cr     1.84836825    0.11319214   -1.88125915      11
Ni    -0.00828913   -1.79142758    1.82570119      12
Ni    -1.78406245   -0.02857482    1.81841092      13
Co     1.69968897    0.04628718    1.80316422      14
Ni    -1.78857628   -1.82155073    0.07825474      15
Ni     1.70362835   -1.64124510   -0.00754480      16
Ni    -0.06291342    1.71790721    1.76502099      17
Co    -0.02367699   -1.74237451   -1.71180036      18
Ni     0.02269538    0.62669666   -0.55218199      19
          19
Lattice="  24.8920   0.0000   0.0000   0.0000  24.8920   0.0000   0.0000   0.0000  24.8920 " ConfE="      -5933.9256" DelE="         -0.6931"
Cr    -0.02425825    3.46003469   -3.44386021       1
Cr    -0.01709517   -0.09217888    3.65085706       2
Ni     0.00379779   -3.60331288    0.09716536       3
Co    -0.02731470   -0.01829173   -3.48399200       4
Ni     0.00727766    3.52270410    0.07785322       5
Ni    -3.58633138   -0.06995868    0.09092432       6
Co     3.54887949   -0.01111306    0.05815396       7
Cr    -1.85661857    1.75923153    0.10561994       8
Cr     1.79375856    1.69093668    0.07422939       9
Ni    -1.77534396   -0.04778522   -1.62763911      10
Cr     1.77118759    0.01579520   -1.66350530      11
Ni    -0.00719259   -1.82220439    1.85209419      12
Ni    -1.76774067   -0.05207223    1.83648324      13
Co     1.70225587    0.01430927    1.79456269      14
Ni    -1.76932628   -1.82141297    0.09422248      15
Ni     1.73610950   -1.73648096    0.05016019      16
Ni    -0.05383664    1.70465790    1.79043549      17
Co    -0.00577682   -1.75350708   -1.67846714      18
Ni    -0.02664447    1.67402902   -1.60073849      19
