          18
Lattice="  24.8920   0.0000   0.0000   0.0000  24.8920   0.0000   0.0000   0.0000  24.8920 " ConfE="      -5932.3220" DelE="          0.0000"
Cr    -3.41963936   -0.03549170   -0.01965925       1
Co     0.05743330   -3.49612660    0.00831969       2
Cr     3.72678149    0.01650452    0.00935232       3
Co     0.06443627    3.65357033   -0.05467059       4
Cr     0.13111685   -0.00315133   -3.56579228       5
Co     0.11871362    0.06926030    3.49667323       6
Co    -1.69158926    0.01088491   -1.75453044       7
Co    -1.66501385    0.01115757    1.70233324       8
Ni     0.07867044   -1.74240567   -1.73736258       9
Ni     0.08146008   -1.75450023    1.73490000      10
Ni    -1.69151203    1.84672460   -0.03300075      11
Co     1.89881128   -1.73648751   -0.01891236      12
Cr     1.82493140    1.86193514    0.03344886      13
Cr     0.09866282    1.75992185   -1.75845547      14
Co     0.10527759    1.83235352    1.71531229      15
Co     1.90296309    0.03066573   -1.75093987      16
Ni     1.86592117    0.01344306    1.74407024      17
Cr     0.00000000    0.00000000    0.00000000      18
          18
Lattice="  24.8920   0.0000   0.0000   0.0000  24.8920   0.0000   0.0000   0.0000  24.8920 " ConfE="      -5931.7228" DelE="          0.5992"
Cr    -3.46971091   -0.03665453   -0.03988003       1
Co     0.05455217   -3.44616654    0.00597457       2
Cr     3.70583894   -0.01690775    0.03108800       3
Co     0.04614462    3.63688773   -0.04765461       4
Cr     0.13504572    0.01959374   -3.63953436       5
Co     0.12792633    0.08526351    3.55345951       6
Co    -1.70311965    0.04269479   -1.87116363       7
Co    -1.70857295    0.06708282    1.86869106       8
Ni     0.12229398   -1.75936034   -1.87691214       9
Ni     0.14552537   -1.79899100    1.89484529      10
Ni    -1.67591042    1.74128651   -0.02180223      11
Co     1.81397613   -1.72037630   -0.01725408      12
Cr     1.79226667    1.82370366    0.09773251      13
Cr     0.16751591    1.58006276   -1.59761508      14
Co     0.08965337    1.79183065    1.70541558      15
Co     1.87736787    0.00336047   -1.73987641      16
Ni     1.81076753   -0.00686028    1.72391787      17
Cr    -0.75291245   -0.80129639    0.05452650      18
          18
Lattice="  24.8920   0.0000   0.0000   0.0000  24.8920   0.0000   0.0000   0.0000  24.8920 " ConfE="      -5932.5072" DelE="         -0.1852"
Cr    -3.50544052    0.01252070   -0.03054580       1
Co     0.09527101   -3.53115770   -0.00598551       2
Cr     3.73675314    0.00242728    0.02357920       3
Co     0.06094533    3.67093091   -0.04985279       4
Cr     0.14878062    0.00609248   -3.58881333       5
Co     0.13013702    0.07453131    3.53241485       6
Co    -1.65935254    0.04127580   -1.76925356       7
Co    -1.65674133    0.02598549    1.71539449       8
Ni     0.11219678   -1.70249369   -1.73461071       9
Ni     0.10170443   -1.72494640    1.72463894      10
Ni    -1.64875637    1.77845741   -0.03268160      11
Co     1.88128474   -1.72825982   -0.01949195      12
Cr     1.79490869    1.84065603    0.07601137      13
Cr     0.16405102    1.68050674   -1.66840615      14
Co     0.11704481    1.81513071    1.70263674      15
Co     1.90266304    0.03353743   -1.72991020      16
Ni     1.85133714    0.01664166    1.72807379      17
Cr    -1.67263135   -1.67786305    0.00138370      18
