          18
Lattice="  24.8920   0.0000   0.0000   0.0000  24.8920   0.0000   0.0000   0.0000  24.8920 " ConfE="      -5950.6497" DelE="          0.0000"
Ni     0.05140059    3.44655686    0.01208950       1
Ni     0.06999237   -0.01221507   -3.44292549       2
Ni     3.57609681   -0.04605173    0.03715072       3
Ni     0.03059907   -0.06023016    3.61140577       4
Cr     0.04003478   -3.62866139    0.10906929       5
Co    -3.50545903   -0.05708880    0.03837176       6
Ni     1.79299442    1.70131224    0.04970472       7
Ni     0.06895529   -1.85992582   -1.72237270       8
Cr    -1.70660752    1.68222222    0.03463529       9
Cr    -1.67394029   -0.01338332   -1.67908641      10
Co     1.79926386   -0.02788474   -1.70597028      11
Ni     1.80830965   -1.82696371    0.04319970      12
Co    -1.70481525   -1.80840031    0.04369219      13
Co     0.03740714    1.72564039    1.86063547      14
Co     0.06924211   -1.79253612    1.80859289      15
Co    -1.73915685   -0.00843524    1.80468677      16
Cr     1.75383630   -0.07953058    1.80361838      17
Co     0.00000000    0.00000000    0.00000000      18
          18
Lattice="  24.8920   0.0000   0.0000   0.0000  24.8920   0.0000   0.0000   0.0000  24.8920 " ConfE="      -5950.0142" DelE="          0.6355"
Ni     0.04577526    3.41523607    0.02521969       1
Ni     0.06195015    0.00385808   -3.42119369       2
Ni     3.62292486   -0.05141304    0.04691761       3
Ni     0.03548476   -0.05737384    3.62735980       4
Cr     0.04428522   -3.62114090    0.08897278       5
Co    -3.54942065   -0.06449252    0.04999731       6
Ni     1.91541005    1.72865967    0.08439327       7
Ni     0.05816936   -1.77812917   -1.69922770       8
Cr    -1.90712597    1.71897052    0.12872414       9
Cr    -1.86727026   -0.09341724   -1.75178767      10
Co     1.90147032   -0.04545933   -1.72637867      11
Ni     1.80072823   -1.78269839    0.03802227      12
Co    -1.68602219   -1.74973144    0.03087839      13
Co     0.05919655    1.66061470    1.79029809      14
Co     0.07642346   -1.74633029    1.77871354      15
Co    -1.71588671    0.00088801    1.76554175      16
Cr     1.72481549   -0.05823196    1.76504638      17
Co    -0.07759145    0.81224469   -0.77677681      18
          18
Lattice="  24.8920   0.0000   0.0000   0.0000  24.8920   0.0000   0.0000   0.0000  24.8920 " ConfE="      -5950.7295" DelE="         -0.0798"
Ni     0.05763532    3.49400270    0.05652632       1
Ni     0.07291980   -0.05696586   -3.50597888       2
Ni     3.59124599   -0.05471219    0.04203441       3
Ni     0.03278297   -0.05904155    3.62691941       4
Cr     0.05089914   -3.66076286    0.10393713       5
Co    -3.52660146   -0.05759363    0.04019522       6
Ni     1.76856515    1.65515562    0.07067543       7
Ni     0.07300361   -1.83010227   -1.70690026       8
Cr    -1.69647772    1.65001103    0.06932384       9
Cr    -1.67350702   -0.06077164   -1.64634062      10
Co     1.79437084   -0.05828117   -1.69400732      11
Ni     1.79913082   -1.82013547    0.04766268      12
Co    -1.66673032   -1.76144455    0.03203596      13
Co     0.04518314    1.69468689    1.82843172      14
Co     0.08843690   -1.76085734    1.78980684      15
Co    -1.69523402   -0.00199623    1.75399887      16
Cr     1.73581349   -0.10012399    1.79772656      17
Co     0.01131887    1.68275979   -1.71289243      18
