          18
Lattice="  24.8920   0.0000   0.0000   0.0000  24.8920   0.0000   0.0000   0.0000  24.8920 " ConfE="      -5936.9553" DelE="          0.0000"
Ni     0.03116608   -0.00604182   -3.45616650       1
Ni     3.55446467   -0.02231594    0.06050195       2
Ni     0.01519866   -0.07825198    3.61120231       3
Cr    -0.09724138    3.47464083   -0.02482669       4
Co    -3.55327911   -0.01807329    0.04813619       5
Cr     0.05080790   -3.62819768    0.02683945       6
Co    -1.74905157   -0.04687493   -1.74542933       7
Ni    -1.73446828   -1.82481730    0.06993485       8
Co    -1.73616140    1.78946633    0.04738599       9
Cr     1.74629495   -0.05672050   -1.72320802      10
Ni    -1.75910243   -0.06451245    1.82926449      11
Ni     0.02083684   -1.83513945    1.82522352      12
Co     1.75830335    1.79143222   -0.00883814      13
Ni     1.79208694   -0.04489556    1.81592301      14
Co     0.03262289   -1.86884267   -1.74495637      15
Co     1.79108279   -1.84636349    0.02960872      16
Co     0.04099665    1.75864874    1.84736026      17
Ni     0.00000000    0.00000000    0.00000000      18
          18
Lattice="  24.8920   0.0000   0.0000   0.0000  24.8920   0.0000   0.0000   0.0000  24.8920 " ConfE="      -5936.5190" DelE="          0.4364"
Ni     0.03682627   -0.00804683   -3.43010772       1
Ni     3.60016364   -0.03507201    0.06000276       2
Ni     0.01536393   -0.07470448    3.60553535       3
Cr    -0.06717127    3.41973730   -0.03699285       4
Co    -3.59748405   -0.02338278    0.04707430       5
Cr     0.04969126   -3.64602979    0.02143365       6
Co    -1.87268046   -0.08519820   -1.78304220       7
Ni    -1.72085947   -1.80048035    0.05508439       8
Co    -1.89666029    1.83061243    0.08092374       9
Cr     1.88437810   -0.07885304   -1.75838763      10
Ni    -1.74376987   -0.05574580    1.78507600      11
Ni     0.02421115   -1.82306622    1.79834000      12
Co     1.95609422    1.84843072    0.06214682      13
Ni     1.78491042   -0.03998005    1.77875128      14
Co     0.03172630   -1.82480708   -1.71784512      15
Co     1.77836039   -1.81650895    0.00977029      16
Co     0.03713188    1.74342496    1.79748977      17
Ni     0.02321412    0.61627438   -0.51517137      18
          18
Lattice="  24.8920   0.0000   0.0000   0.0000  24.8920   0.0000   0.0000   0.0000  24.8920 " ConfE="      -5936.5780" DelE="          0.3773"
Ni     0.03717061    0.01322253   -3.39894151       1
Ni     3.62731898   -0.04125129    0.06497635       2
Ni     0.01571477   -0.06740022    3.59373876       3
Cr    -0.05638770    3.43738545   -0.03323132       4
Co    -3.61713223   -0.02585014    0.05090653       5
Cr     0.04945222   -3.62315982    0.01637165       6
Co    -1.90003185   -0.09312633   -1.77736890       7
Ni    -1.73195983   -1.79450048    0.05709854       8
Co    -1.91611550    1.81077432    0.09505824       9
Cr     1.92038337   -0.09500081   -1.74991627      10
Ni    -1.76531196   -0.05823280    1.79761215      11
Ni     0.02223772   -1.79990070    1.78076410      12
Co     1.99412332    1.83923127    0.09311358      13
Ni     1.80812241   -0.04512753    1.79250104      14
Co     0.02855064   -1.80496034   -1.70771504      15
Co     1.78526686   -1.80023548    0.00612709      16
Co     0.03516200    1.72222302    1.75673713      17
Ni     0.04551645    0.86598311   -0.80059646      18
