          18
Lattice="  24.8920   0.0000   0.0000   0.0000  24.8920   0.0000   0.0000   0.0000  24.8920 " ConfE="      -5941.4765" DelE="          0.0000"
Co    -3.41222737    0.06806025    0.03242346       1
Cr     0.03123103   -3.44066518   -0.00611767       2
Ni     3.60760097    0.07951364    0.03480980       3
Cr     0.05295436    3.68529768   -0.05492825       4
Ni     0.04061936    0.08443156   -3.56024674       5
Ni     0.00256065    0.10157793    3.58178786       6
Ni    -1.72298599    0.07903070   -1.76541420       7
Cr    -1.73163961    0.03738494    1.72407164       8
Cr     0.04371582   -1.71450676   -1.77620004       9
Cr     0.02057962   -1.70834021    1.75788259      10
Cr    -1.69974109    1.89508689    0.02233571      11
Co     1.83985828   -1.70708135   -0.01570256      12
Co     1.77637996    1.85427973    0.03478757      13
Cr     0.09287085    1.92397194   -1.82750617      14
Co    -0.00002138    1.88276854    1.75463473      15
Cr     1.83983938    0.11684562   -1.77472170      16
Cr     1.78973276    0.06802537    1.78398373      17
Cr     0.00000000    0.00000000    0.00000000      18
          18
Lattice="  24.8920   0.0000   0.0000   0.0000  24.8920   0.0000   0.0000   0.0000  24.8920 " ConfE="      -5941.0505" DelE="          0.4260"
Co    -3.36491338    0.07315119    0.02791375       1
Cr     0.04651389   -3.57549469    0.00422688       2
Ni     3.57290274    0.06589837    0.04652574       3
Cr     0.03574045    3.69939672   -0.05678838       4
Ni     0.04368355    0.09817881   -3.60444961       5
Ni     0.01910490    0.13722159    3.62174408       6
Ni    -1.69071164    0.11129161   -1.83186477       7
Cr    -1.70391988    0.21051657    1.84102328       8
Cr     0.09531388   -1.75745906   -1.91737827       9
Cr     0.16873935   -1.81341312    2.03976259      10
Cr    -1.64922476    1.85603610   -0.00132879      11
Co     1.71427382   -1.72596023   -0.00049160      12
Co     1.72470740    1.85175104    0.03392292      13
Cr     0.07355365    1.93001065   -1.81603346      14
Co    -0.00779193    1.89055948    1.74424497      15
Cr     1.63425158    0.09281666   -1.58859339      16
Cr     1.59447505    0.05460424    1.63375982      17
Cr    -0.87961137   -0.99228963    0.12549858      18
          18
Lattice="  24.8920   0.0000   0.0000   0.0000  24.8920   0.0000   0.0000   0.0000  24.8920 " ConfE="      -5941.5267" DelE="         -0.0502"
Co    -3.47106786    0.08944997    0.01982159       1
Cr     0.09670327   -3.56649648   -0.00270479       2
Ni     3.60933725    0.08384511    0.04741247       3
Cr     0.05795147    3.69859792   -0.05313803       4
Ni     0.05301319    0.09747240   -3.57810854       5
Ni     0.01908833    0.11284193    3.61167051       6
Ni    -1.66479675    0.10637105   -1.73818546       7
Cr    -1.62009116    0.09984256    1.71090786       8
Cr     0.11002885   -1.67660247   -1.77365768       9
Cr     0.10406979   -1.68067244    1.75513004      10
Cr    -1.65973936    1.86061648    0.02390034      11
Co     1.75819650   -1.67154446   -0.01737531      12
Co     1.75020666    1.84285143    0.03291933      13
Cr     0.09975298    1.89751558   -1.77844599      14
Co     0.00259380    1.87568980    1.73368771      15
Cr     1.79079573    0.13244931   -1.69944563      16
Cr     1.72050813    0.09998197    1.72781152      17
Cr    -1.62020842   -1.66673383    0.00357977      18
