          18
Lattice="  24.8920   0.0000   0.0000   0.0000  24.8920   0.0000   0.0000   0.0000  24.8920 " ConfE="      -5942.2501" DelE="          0.0000"
Ni    -0.01149630    3.53385416    0.02168455       1
Ni    -0.00268474   -0.02979802   -3.49179515       2
Cr    -0.04195411   -3.57545032    0.02928521       3
Co    -0.01164580   -0.00227232    3.60653074       4
Cr     3.56722829   -0.02484289   -0.01240302       5
Cr    -3.46922038   -0.09420893    0.00987357       6
Ni    -0.01005574   -1.82823780   -1.76157065       7
Ni     0.00621362    1.78075493    1.83315364       8
Cr     1.70423688    0.08493153   -1.70950416       9
Co     1.78187898    1.73311384   -0.01160660      10
Co    -1.78372714    1.77123939    0.02536408      11
Co    -1.76093686   -0.00875894   -1.72751497      12
Ni     1.74842984   -1.79157535    0.00912551      13
Co    -0.00922623   -1.80189808    1.79788728      14
Cr     1.72003470   -0.00107324    1.79691593      15
Cr    -1.69822344   -0.02380908    1.75538406      16
Co    -1.77336164   -1.82386543    0.04182131      17
Co     0.00000000    0.00000000    0.00000000      18
          18
Lattice="  24.8920   0.0000   0.0000   0.0000  24.8920   0.0000   0.0000   0.0000  24.8920 " ConfE="      -5941.5972" DelE="          0.6529"
Ni    -0.01365439    3.53323907    0.02933043       1
Ni     0.00221631   -0.02645074   -3.46376644       2
Cr    -0.04911675   -3.60374086    0.01101565       3
Co    -0.01320975    0.00399297    3.59507221       4
Cr     3.65238846   -0.03173836    0.00841851       5
Cr    -3.51143170   -0.11325173    0.03841968       6
Ni    -0.01010076   -1.77066136   -1.73139905       7
Ni     0.00937033    1.79338523    1.78663278       8
Cr     1.85070094    0.02285515   -1.71784533       9
Co     1.96776711    1.75925435    0.12257232      10
Co    -1.89931876    1.81765121    0.06564726      11
Co    -1.88310075   -0.04247664   -1.74528538      12
Ni     1.72854752   -1.75252057    0.00350799      13
Co    -0.00175651   -1.79192162    1.76602449      14
Cr     1.63276704    0.00031493    1.70672640      15
Cr    -1.53236979   -0.04137201    1.58885925      16
Co    -1.76073170   -1.80074188    0.02808736      17
Co     0.05336307    0.88305357   -0.83532745      18
          18
Lattice="  24.8920   0.0000   0.0000   0.0000  24.8920   0.0000   0.0000   0.0000  24.8920 " ConfE="      -5942.2464" DelE="          0.0037"
Ni    -0.01099859    3.57198450    0.04358905       1
Ni    -0.00322990   -0.04985943   -3.53546858       2
Cr    -0.05970978   -3.61488546    0.02391713       3
Co    -0.01058881   -0.00097263    3.61915510       4
Cr     3.61819252   -0.02891254   -0.00600644       5
Cr    -3.49323378   -0.10738414    0.03987847       6
Ni    -0.01083176   -1.79531206   -1.74455580       7
Ni     0.00349151    1.76863418    1.79815895       8
Cr     1.70156135    0.04294296   -1.67284036       9
Co     1.79817167    1.69208525    0.03758485      10
Co    -1.77200256    1.74298064    0.04519876      11
Co    -1.73671762   -0.02915083   -1.69362227      12
Ni     1.71254144   -1.76306729    0.00773792      13
Co    -0.00558078   -1.78781146    1.78457235      14
Cr     1.65822305   -0.00962325    1.74430202      15
Cr    -1.60451466   -0.06476635    1.70115000      16
Co    -1.75394076   -1.80044479    0.05242545      17
Co     0.04465138    1.71312631   -1.71049555      18
