          18
Lattice="  24.8920   0.0000   0.0000   0.0000  24.8920   0.0000   0.0000   0.0000  24.8920 " ConfE="      -5950.3452" DelE="          0.0000"
Co    -0.07149933    3.55142508   -0.02738498       1
Co     3.60035339   -0.05398778    0.01960237       2
Co    -0.00778243   -3.54788887    0.02254403       3
Co    -3.57130100   -0.01623949    0.01402567       4
Ni    -0.04176397   -0.02270134   -3.55776084       5
Co     0.01128669   -0.01848099    3.56488548       6
Ni    -0.01706044    1.75316675   -1.74415832       7
Ni     0.02604697    1.75657666    1.74212368       8
Ni     1.76612563   -0.00876312   -1.73017064       9
Ni     1.79071132   -0.00774706    1.76119730      10
Co    -1.83918264    1.77939971    0.00463156      11
Ni     1.78472666   -1.80211601    0.00470388      12
Cr    -1.81438099   -1.78710079    0.03817769      13
Co    -1.82392202   -0.01382016   -1.76767989      14
Ni    -1.77612647   -0.01569081    1.76083420      15
Ni    -0.03312779   -1.76992203   -1.76687279      16
Co     0.01902015   -1.80563280    1.79371937      17
Ni     0.00000000    0.00000000    0.00000000      18
          18
Lattice="  24.8920   0.0000   0.0000   0.0000  24.8920   0.0000   0.0000   0.0000  24.8920 " ConfE="      -5949.3966" DelE="          0.9486"
Co    -0.06753122    3.50982765   -0.01077037       1
Co     3.58371025   -0.02543973    0.02603458       2
Co     0.00873432   -3.53761928    0.00896671       3
Co    -3.58291658   -0.00677340    0.01098031       4
Ni    -0.05464951   -0.03450819   -3.61687756       5
Co    -0.00280048   -0.05562543    3.61764996       6
Ni    -0.06591735    1.75515503   -1.86556631       7
Ni    -0.05339053    1.77163220    1.95835802       8
Ni     1.79717719   -0.04950016   -1.86622888       9
Ni     1.82816839   -0.09383626    1.93966749      10
Co    -1.76840426    1.74229012    0.01658066      11
Ni     1.75419791   -1.70465946    0.01267186      12
Cr    -1.76799755   -1.72778461    0.03702197      13
Co    -1.80616431   -0.00614420   -1.74436382      14
Ni    -1.75887214   -0.01151289    1.74585384      15
Ni    -0.03244213   -1.70952111   -1.73917436      16
Co    -0.01824643   -1.76690648    1.74504972      17
Ni     1.01646213    0.99576694    0.06397181      18
          18
Lattice="  24.8920   0.0000   0.0000   0.0000  24.8920   0.0000   0.0000   0.0000  24.8920 " ConfE="      -5950.0893" DelE="          0.2559"
Co    -0.07523585    3.57018073   -0.02641626       1
Co     3.61530960   -0.06257206    0.01751248       2
Co    -0.00084782   -3.57365123    0.01481433       3
Co    -3.59572484   -0.01892195    0.01901182       4
Ni    -0.05043248   -0.02761487   -3.56974739       5
Co     0.00290367   -0.03577078    3.58085021       6
Ni    -0.03755940    1.72132064   -1.73646943       7
Ni    -0.00622657    1.71859993    1.74259830       8
Ni     1.73392196   -0.03274460   -1.72822850       9
Ni     1.76687446   -0.04823808    1.76975924      10
Co    -1.80597824    1.75667438    0.00669373      11
Ni     1.76727125   -1.77964185    0.00862464      12
Cr    -1.78892807   -1.76945460    0.04051677      13
Co    -1.81358325   -0.01900448   -1.72281706      14
Ni    -1.75594196   -0.03067344    1.72179930      15
Ni    -0.04518507   -1.73626686   -1.72196219      16
Co    -0.00760075   -1.79674858    1.74696025      17
Ni     1.73206482    1.70526989    0.00983320      18
