          18
Lattice="  24.8920   0.0000   0.0000   0.0000  24.8920   0.0000   0.0000   0.0000  24.8920 " ConfE="      -5942.0553" DelE="          0.0000"
Cr     0.11164186   -0.06236859    3.47117896       1
Ni     0.03117184   -3.51841026   -0.04039392       2
Cr     0.02433996   -0.01244503   -3.57105793       3
Ni     0.03135057    3.60127717   -0.01352828       4
Co    -3.50726498   -0.01476251   -0.00946563       5
Cr     3.54772748    0.02686114   -0.00537790       6
Cr    -1.61050065   -0.15750991    1.73557124       7
Co     1.74911019   -0.01713174    1.75824861       8
Ni    -1.71699560   -1.78081315   -0.07802857       9
Ni     1.75702508   -1.77192363   -0.02440734      10
Co    -0.00720240    1.82907813    1.77192244      11
Co    -0.02616193   -1.72260579   -1.91084537      12
Co     0.01342446    1.76531798   -1.81188747      13
Cr    -1.67448432    1.69235352   -0.02383323      14
Ni     1.79167139    1.79695438   -0.02295801      15
Co    -1.79602674   -0.00066053   -1.84053086      16
Ni     1.78142095   -0.00022121   -1.79670460      17
Co     0.00000000    0.00000000    0.00000000      18
          18
Lattice="  24.8920   0.0000   0.0000   0.0000  24.8920   0.0000   0.0000   0.0000  24.8920 " ConfE="      -5941.4591" DelE="          0.5963"
Cr     0.11214325   -0.10831475    3.48632787       1
Ni     0.03127142   -3.48786466   -0.05663670       2
Cr     0.03588346   -0.01853220   -3.59766602       3
Ni     0.02810288    3.58774335    0.00985536       4
Co    -3.56042336   -0.00013916   -0.02836539       5
Cr     3.61957519    0.04137091   -0.03276883       6
Cr    -1.87071644   -0.09673844    1.82792208       7
Co     1.98894589    0.04871806    1.80386051       8
Ni    -1.83586742   -1.79416459   -0.12750117       9
Ni     1.87779738   -1.77957936   -0.07196600      10
Co    -0.00253253    1.71766038    1.75560265      11
Co    -0.03595991   -1.69421532   -1.85716655      12
Co     0.00331185    1.72821268   -1.77295762      13
Cr    -1.54876061    1.50998764    0.00232850      14
Ni     1.77406088    1.74610955   -0.01123994      15
Co    -1.78867649    0.00109186   -1.82616536      16
Ni     1.75521537   -0.00401771   -1.76436369      17
Co    -0.00044628   -0.80431576    0.97246390      18
          18
Lattice="  24.8920   0.0000   0.0000   0.0000  24.8920   0.0000   0.0000   0.0000  24.8920 " ConfE="      -5942.4067" DelE="         -0.3513"
Cr     0.08490586    0.00436905    3.53916256       1
Ni     0.02695943   -3.55084225   -0.05444123       2
Cr     0.02885107   -0.00365595   -3.62399550       3
Ni     0.03014093    3.61394068   -0.01174190       4
Co    -3.52780245   -0.00508703   -0.01847405       5
Cr     3.56917751    0.03947344   -0.01116391       6
Cr    -1.63884907   -0.05220977    1.71276238       7
Co     1.76269322    0.00940707    1.73812904       8
Ni    -1.68053705   -1.72150647   -0.08010795       9
Ni     1.73932585   -1.73533211   -0.05120163      10
Co    -0.01543613    1.77667475    1.73485444      11
Co    -0.02870873   -1.70815902   -1.90578908      12
Co    -0.00416381    1.74173018   -1.78980450      13
Cr    -1.63288274    1.65750431   -0.04711613      14
Ni     1.76805732    1.77382408   -0.03237975      15
Co    -1.77769347    0.01313474   -1.83214763      16
Ni     1.74450124    0.00894253   -1.78760240      17
Co     0.01006521   -1.75281151    1.76123260      18
