          18
Lattice="  24.8920   0.0000   0.0000   0.0000  24.8920   0.0000   0.0000   0.0000  24.8920 " ConfE="      -5940.7580" DelE="          0.0000"
Co    -3.38797435    0.01551147    0.07414695       1
Cr     0.01068425    0.04040977   -3.36409134       2
Co     3.59678506   -0.00398556    0.10680097       3
Ni     0.06347465    0.01965823    3.69335128       4
Cr     0.10456217   -3.63730923    0.15101802       5
Cr     0.11081773    3.57284184    0.07914776       6
Co    -1.62014015   -1.78483339    0.02202927       7
Ni    -1.67441479    1.81087173    0.11036001       8
Cr     0.03406676   -1.76824707   -1.65452052       9
Cr     0.05811206    1.79148889   -1.70189089      10
Ni    -1.70016694    0.02929031    1.90567303      11
Co     1.86677745    0.00018855   -1.65554301      12
Cr     1.78744337    0.03573148    1.85701547      13
Ni     0.04725628   -1.76354246    1.89337790      14
Co     0.06927915    1.78724162    1.85875685      15
Cr     1.81727922   -1.83233734    0.08353120      16
Cr     1.79431512    1.79647910    0.08761626      17
Cr     0.00000000    0.00000000    0.00000000      18
          18
Lattice="  24.8920   0.0000   0.0000   0.0000  24.8920   0.0000   0.0000   0.0000  24.8920 " ConfE="      -5940.3018" DelE="          0.4561"
Co    -3.33481860    0.02345216    0.04233790       1
Cr     0.03221972    0.04357137   -3.49650379       2
Co     3.57589745    0.01595782    0.07897418       3
Ni     0.04419659    0.01733913    3.70893523       4
Cr     0.17611140   -3.69633838    0.22852290       5
Cr     0.18185106    3.62848196    0.10749894       6
Co    -1.62723323   -1.88898431    0.06877040       7
Ni    -1.64638074    1.90713080    0.13716599       8
Cr     0.08435848   -2.01075417   -1.66931909       9
Cr     0.12441729    1.92327837   -1.76789211      10
Ni    -1.65490454    0.03253476    1.81952795      11
Co     1.73811334   -0.02478500   -1.66980014      12
Cr     1.74074271    0.02215752    1.87758016      13
Ni     0.03627283   -1.75910724    1.88703229      14
Co     0.06769898    1.77803527    1.86538231      15
Cr     1.67686273   -1.65077551    0.08609324      16
Cr     1.56990836    1.59007826    0.11051986      17
Cr    -0.80311941   -0.00842971   -0.89348856      18
          18
Lattice="  24.8920   0.0000   0.0000   0.0000  24.8920   0.0000   0.0000   0.0000  24.8920 " ConfE="      -5940.9034" DelE="         -0.1454"
Co    -3.42930803    0.01984438    0.09593557       1
Cr     0.11884656    0.05117337   -3.51774698       2
Co     3.61937670    0.00391341    0.10178342       3
Ni     0.06396947    0.01727756    3.71272406       4
Cr     0.12360502   -3.63862106    0.15849651       5
Cr     0.13545639    3.58493789    0.08463158       6
Co    -1.59703621   -1.77771366    0.05273854       7
Ni    -1.62575986    1.79208424    0.12631034       8
Cr     0.06652305   -1.72707063   -1.60105183       9
Cr     0.09714986    1.75795016   -1.69021536      10
Ni    -1.67894449    0.02998556    1.88507968      11
Co     1.76764703   -0.00196597   -1.59311772      12
Cr     1.73187808    0.03843212    1.81016815      13
Ni     0.05619103   -1.75762474    1.89190288      14
Co     0.09934998    1.76546974    1.85037159      15
Cr     1.80210774   -1.79270861    0.10634922      16
Cr     1.75581482    1.75707899    0.10597605      17
Cr    -1.62082788   -0.00038385   -1.57692339      18
