          18
Lattice="  24.8920   0.0000   0.0000   0.0000  24.8920   0.0000   0.0000   0.0000  24.8920 " ConfE="      -5943.7790" DelE="          0.0000"
Co    -0.06191789    3.54657745   -0.11695522       1
Co     0.00977607    0.04335451   -3.58605455       2
Co     0.02543057   -3.54246127   -0.03556064       3
Co     0.00935187   -0.00032227    3.50495179       4
Cr    -3.53946161   -0.01805568   -0.04736916       5
Ni     3.52904635    0.02120605   -0.01291855       6
Ni    -1.72946655    1.77489867   -0.05492781       7
Ni     1.69940563    1.78628020   -0.06029497       8
Ni    -1.71477305    0.04685290   -1.79143220       9
Co     1.76809955   -0.01082094   -1.84066615      10
Cr    -0.04637493    1.77363589    1.80123968      11
Co    -0.00034559   -1.78708792   -1.77670443      12
Cr     0.07127606   -1.79755540    1.73923582      13
Co    -1.76776983   -0.01189359    1.74853314      14
Ni     1.76831053    0.02287528    1.75066334      15
Co    -1.76620633   -1.75924677   -0.01447566      16
Co     1.77883949   -1.75018995   -0.04898890      17
Co     0.00000000    0.00000000    0.00000000      18
          18
Lattice="  24.8920   0.0000   0.0000   0.0000  24.8920   0.0000   0.0000   0.0000  24.8920 " ConfE="      -5942.7153" DelE="          1.0637"
Co    -0.05179986    3.45569486   -0.13619994       1
Co    -0.01363828    0.05651085   -3.51654529       2
Co     0.02475803   -3.52647106   -0.05251760       3
Co     0.00638613    0.00787961    3.48360457       4
Cr    -3.68815475   -0.03434018   -0.03692111       5
Ni     3.58607028    0.00303707   -0.00140745       6
Ni    -1.91334279    1.77740742   -0.01668125       7
Ni     1.93225935    1.84965571   -0.00588973       8
Ni    -1.91441163    0.00203494   -1.79547063       9
Co     1.93196315   -0.07823702   -1.86572252      10
Cr    -0.03027134    1.70218963    1.64802986      11
Co    -0.00722664   -1.65598111   -1.70306215      12
Cr     0.04452606   -1.71984343    1.66589594      13
Co    -1.75730640    0.00222393    1.69347113      14
Ni     1.73924014    0.03659602    1.67624312      15
Co    -1.76978545   -1.72305261   -0.01660140      16
Co     1.76787567   -1.72799383   -0.04800291      17
Co     0.06402878    0.93418022   -0.95978082      18
          18
Lattice="  24.8920   0.0000   0.0000   0.0000  24.8920   0.0000   0.0000   0.0000  24.8920 " ConfE="      -5943.6442" DelE="          0.1348"
Co    -0.05374743    3.59813560   -0.07275951       1
Co     0.00323315    0.01961405   -3.61862114       2
Co     0.02491129   -3.55990203   -0.04456408       3
Co     0.00675769   -0.00463641    3.52117134       4
Cr    -3.58357166   -0.02125924   -0.04735857       5
Ni     3.53619015    0.01755893   -0.00814709       6
Ni    -1.72198589    1.75414201   -0.03566991       7
Ni     1.69271091    1.77043439   -0.03354156       8
Ni    -1.72431342    0.01367229   -1.76166104       9
Co     1.77353493   -0.01528976   -1.83404209      10
Cr    -0.05415074    1.76816555    1.76567391      11
Co     0.00978369   -1.73928734   -1.74580109      12
Cr     0.06473386   -1.79463141    1.71912807      13
Co    -1.71162541   -0.00623948    1.71036674      14
Ni     1.70225846    0.02017096    1.70789484      15
Co    -1.73025456   -1.73683332   -0.00388041      16
Co     1.73424355   -1.72561949   -0.04280739      17
Co    -0.00108473    1.80478246   -1.82678841      18
