          18
Lattice="  24.8920   0.0000   0.0000   0.0000  24.8920   0.0000   0.0000   0.0000  24.8920 " ConfE="      -5943.5524" DelE="          0.0000"
Ni     0.05676234    0.01512909   -3.52743106       1
Ni     3.53686244   -0.01723557   -0.03768280       2
Ni     0.01373096   -0.00101201    3.54842473       3
Ni    -3.50188264   -0.01985459    0.00458534       4
Co     0.06311122   -3.55567450   -0.02891824       5
Ni     0.05428879    3.56570402    0.00475876       6
Co     0.08696513   -1.78536568   -1.80720921       7
Ni     0.03815688    1.76873756   -1.78125141       8
Ni     1.80237704   -1.75794187   -0.01338450       9
Ni     1.77389945    1.76281170    0.01517697      10
Co    -1.74635422    0.01818010   -1.79218905      11
Ni     1.79363463   -0.00722149    1.81441552      12
Cr    -1.72483568    0.00605228    1.77322585      13
Ni    -1.71647584   -1.78250666   -0.00136113      14
Co    -1.77688601    1.77596836   -0.04333570      15
Ni     0.04542171   -1.78750580    1.77083989      16
Ni     0.02306150    1.76755101    1.77776029      17
Co     0.00000000    0.00000000    0.00000000      18
          18
Lattice="  24.8920   0.0000   0.0000   0.0000  24.8920   0.0000   0.0000   0.0000  24.8920 " ConfE="      -5942.7331" DelE="          0.8193"
Ni     0.07658532    0.01263720   -3.48778432       1
Ni     3.50913903   -0.01932657   -0.03009694       2
Ni     0.01852088    0.01147209    3.54845606       3
Ni    -3.49975173   -0.01939027   -0.00573673       4
Co     0.03919928   -3.60506331   -0.00009391       5
Ni     0.04131722    3.60658904    0.00469393       6
Co     0.04349777   -1.97713027   -1.86546920       7
Ni    -0.00608713    1.92137583   -1.81523739       8
Ni     1.84668214   -1.91788090    0.07133758       9
Ni     1.80539239    1.88383874    0.04823416      10
Co    -1.65094306    0.01028825   -1.74951433      11
Ni     1.77666090    0.00514323    1.75846505      12
Cr    -1.69775162    0.01233684    1.73507131      13
Ni    -1.64857244   -1.73587755   -0.02690200      14
Co    -1.76550329    1.76467772   -0.06253767      15
Ni     0.04948151   -1.73755890    1.73139056      16
Ni     0.00752459    1.73691550    1.70892977      17
Co     0.87006705   -0.05266136   -0.91570586      18
          18
Lattice="  24.8920   0.0000   0.0000   0.0000  24.8920   0.0000   0.0000   0.0000  24.8920 " ConfE="      -5943.7070" DelE="         -0.1546"
Ni     0.04334640    0.01253602   -3.57160179       1
Ni     3.57653026   -0.00417235    0.00577917       2
Ni     0.01066837    0.00584616    3.56420525       3
Ni    -3.51224149   -0.02391910    0.00452092       4
Co     0.05328886   -3.56521313   -0.01872056       5
Ni     0.04827064    3.57148803    0.00916070       6
Co     0.07451338   -1.80482923   -1.80997223       7
Ni     0.03597241    1.75495265   -1.77025047       8
Ni     1.78401882   -1.75390508    0.01486614       9
Ni     1.74963623    1.74375299    0.02067531      10
Co    -1.69169034    0.00949995   -1.76845095      11
Ni     1.77624178   -0.00168605    1.79275998      12
Cr    -1.76660057   -0.00114688    1.81205525      13
Ni    -1.68214253   -1.73263766   -0.00114342      14
Co    -1.76837853    1.73696444   -0.04740864      15
Ni     0.02884678   -1.73561080    1.75134176      16
Ni    -0.01196160    1.72348545    1.74158674      17
Co     1.85475429   -0.06001352   -1.80737552      18
