          18
Lattice="  24.8920   0.0000   0.0000   0.0000  24.8920   0.0000   0.0000   0.0000  24.8920 " ConfE="      -5931.4910" DelE="          0.0000"
Ni    -0.02452683    0.13288614    3.48547350       1
Ni    -0.01736348    0.15481487   -3.59761322       2
Ni    -3.57153124    0.20027827   -0.01845905       3
Ni     3.53718187    0.17869645    0.00452289       4
Cr     0.00012418   -3.19702094    0.13317047       5
Cr    -0.04994235    3.81712709   -0.10125449       6
Co    -1.74164225    0.13786661    1.70177335       7
Cr     1.71152624    0.11335759    1.78840528       8
Cr    -1.77900483   -1.61381110   -0.02340965       9
Co     1.76161464   -1.58906787    0.01913736      10
Cr    -0.02095093    1.95655269    1.68838364      11
Co    -0.02454556    1.95066856   -1.76805778      12
Cr    -1.82454942    2.01000704   -0.01346682      13
Cr     1.74217362    1.91591487   -0.04217093      14
Co     0.00266428   -1.62263187   -1.83319036      15
Cr    -1.75662951    0.17903931   -1.81167646      16
Co     1.75320093    0.15907435   -1.80477597      17
Cr     0.00000000    0.00000000    0.00000000      18
          18
Lattice="  24.8920   0.0000   0.0000   0.0000  24.8920   0.0000   0.0000   0.0000  24.8920 " ConfE="      -5930.7866" DelE="          0.7044"
Ni    -0.02104027    0.14951557    3.44798239       1
Ni    -0.01886925    0.14111754   -3.57276659       2
Ni    -3.62347040    0.23358510   -0.02839022       3
Ni     3.59885648    0.19245256   -0.00697369       4
Cr     0.02285000   -3.32650903    0.07821560       5
Cr    -0.03862806    3.80235720   -0.08001413       6
Co    -1.88638037    0.24426967    1.72093023       7
Cr     1.85664808    0.15299674    1.80959697       8
Cr    -1.99305231   -1.64081432   -0.07739267       9
Co     1.87725762   -1.58428917   -0.00503206      10
Cr     0.00303559    1.91693135    1.66766056      11
Co    -0.02262730    1.95199012   -1.77107764      12
Cr    -1.73926922    1.95498740   -0.02004988      13
Cr     1.64835507    1.76915990   -0.06508828      14
Co    -0.00714547   -1.59076348   -1.67607138      15
Cr    -1.64024076    0.14552618   -1.65739817      16
Co     1.72575772    0.15155328   -1.74832032      17
Cr    -0.08838931   -0.90289788    0.95618390      18
          18
Lattice="  24.8920   0.0000   0.0000   0.0000  24.8920   0.0000   0.0000   0.0000  24.8920 " ConfE="      -5931.3770" DelE="          0.1140"
Ni    -0.01689686    0.17882412    3.54665183       1
Ni    -0.00945900    0.15505449   -3.61037370       2
Ni    -3.58048364    0.20759329   -0.02856364       3
Ni     3.55567305    0.19154456   -0.00574782       4
Cr     0.01108860   -3.36000337   -0.00247757       5
Cr    -0.04284096    3.81196677   -0.09187299       6
Co    -1.73181718    0.17422000    1.67629077       7
Cr     1.70064424    0.15638095    1.73035228       8
Cr    -1.70946852   -1.54102994   -0.07677643       9
Co     1.73367551   -1.54251736    0.01037013      10
Cr    -0.01486918    1.90390702    1.67241356      11
Co    -0.02326114    1.95686104   -1.79287255      12
Cr    -1.72652181    1.94049003   -0.04169999      13
Cr     1.65671424    1.85024849   -0.08216308      14
Co    -0.00476188   -1.57440097   -1.74771365      15
Cr    -1.71416316    0.17841027   -1.78812775      16
Co     1.73777538    0.18100771   -1.78068422      17
Cr    -0.03464817   -1.57527078    1.72922833      18
