          18
Lattice="  24.8920   0.0000   0.0000   0.0000  24.8920   0.0000   0.0000   0.0000  24.8920 " ConfE="      -5947.8834" DelE="          0.0000"
Ni     0.02268611   -3.42194638   -0.02642432       1
Co     0.00452292   -0.00703470    3.48672259       2
Cr     3.51464844   -0.00905944   -0.15382640       3
Co    -3.55577748    0.05532926   -0.01861943       4
Co    -0.00499570    3.62392869   -0.01682081       5
Co    -0.05976799    0.08642417   -3.59335648       6
Ni     1.74985246    0.00297183    1.75760804       7
Cr    -1.79958609   -0.02693102    1.75878283       8
Co     1.81888431   -1.67783880   -0.04839230       9
Co    -1.76364870   -1.70482148    0.03238502      10
Cr    -0.00808263    1.82546521    1.74288801      11
Co    -0.01550202   -1.68597535   -1.87376152      12
Cr     1.78037573    1.79696205   -0.04712845      13
Cr    -1.80323568    1.80701231    0.02386353      14
Co     1.77880880    0.06780255   -1.82510000      15
Cr    -1.77031616    0.03645057   -1.78350494      16
Co    -0.03474551    1.80742699   -1.78015781      17
Ni     0.00000000    0.00000000    0.00000000      18
          18
Lattice="  24.8920   0.0000   0.0000   0.0000  24.8920   0.0000   0.0000   0.0000  24.8920 " ConfE="      -5947.2272" DelE="          0.6562"
Ni     0.01342033   -3.36159450   -0.01443242       1
Co     0.00964277   -0.00493752    3.44043130       2
Cr     3.60006000    0.00966210   -0.17296013       3
Co    -3.62133726    0.06849118   -0.04009386       4
Co    -0.00041596    3.63262473   -0.01810246       5
Co    -0.05709304    0.07753185   -3.60397996       6
Ni     1.93812001    0.06803381    1.78072120       7
Cr    -2.02377969    0.03619158    1.77359101       8
Co     1.93786279   -1.67485246   -0.06691054       9
Co    -1.96180436   -1.76486672   -0.05990053      10
Cr     0.00123125    1.71120663    1.67544661      11
Co    -0.02588827   -1.63693259   -1.80311613      12
Cr     1.74610027    1.73139310   -0.05586293      13
Cr    -1.77179498    1.76297665    0.01766650      14
Co     1.77264708    0.06344640   -1.78140051      15
Cr    -1.70656846   -0.00431526   -1.68916543      16
Co    -0.03572548    1.72995140   -1.71534938      17
Ni    -0.06149297   -0.80720446    0.88872934      18
          18
Lattice="  24.8920   0.0000   0.0000   0.0000  24.8920   0.0000   0.0000   0.0000  24.8920 " ConfE="      -5947.8266" DelE="          0.0568"
Ni     0.01707249   -3.45552148   -0.04359892       1
Co     0.01710548    0.06407000    3.53773734       2
Cr     3.55227219    0.00925298   -0.16077966       3
Co    -3.59029606    0.06356668   -0.02464016       4
Co    -0.00259661    3.65611559   -0.02385977       5
Co    -0.05457924    0.08584149   -3.60716798       6
Ni     1.75745476    0.06158317    1.71679051       7
Cr    -1.79219569    0.06274210    1.69839627       8
Co     1.79083582   -1.64139861   -0.05657863       9
Co    -1.74465574   -1.64199617   -0.00367430      10
Cr    -0.00593093    1.77125417    1.67743783      11
Co    -0.01678522   -1.63843930   -1.82361768      12
Cr     1.74091788    1.77582075   -0.07300232      13
Cr    -1.77077629    1.80516664   -0.00686432      14
Co     1.76201466    0.08011880   -1.79295156      15
Cr    -1.69558471    0.01880061   -1.69500952      16
Co    -0.02994594    1.76800222   -1.73638545      17
Ni     0.00796478   -1.67376743    1.73519752      18
