          18
Lattice="  24.8920   0.0000   0.0000   0.0000  24.8920   0.0000   0.0000   0.0000  24.8920 " ConfE="      -5950.0263" DelE="          0.0000"
Ni     0.00741629    3.51958803   -0.01293568       1
Ni    -0.02179297   -0.03473128   -3.50447608       2
Ni     0.01716121   -3.55841652    0.02498672       3
Cr    -0.05102353    0.01600230    3.58066076       4
Co    -3.57942030    0.02323773    0.02524662       5
Cr     3.57772744    0.02555495    0.00531096       6
Ni    -1.76672098    0.02439592   -1.75218677       7
Ni     1.74787411   -0.03098855   -1.75328080       8
Ni     1.74831829    1.74282105   -0.01974515       9
Ni     0.00270723   -1.80880929   -1.74357759      10
Ni     0.01932307   -1.79409451    1.80058158      11
Ni    -1.78455605   -1.77876576    0.01511820      12
Co    -1.80228400    1.81056194   -0.06648008      13
Ni     0.00199112    1.75448935    1.79725378      14
Ni    -1.76505524   -0.00019602    1.78504963      15
Ni     1.77301003   -0.00850598    1.77788745      16
Co     1.82901987   -1.81786850    0.02932219      17
Ni     0.00000000    0.00000000    0.00000000      18
          18
Lattice="  24.8920   0.0000   0.0000   0.0000  24.8920   0.0000   0.0000   0.0000  24.8920 " ConfE="      -5949.3578" DelE="          0.6685"
Ni     0.01054287    3.47382346   -0.01595896       1
Ni    -0.02986609   -0.02656398   -3.44175879       2
Ni     0.02033359   -3.55841578    0.02361253       3
Cr    -0.05239425    0.01702802    3.59648934       4
Co    -3.62713507    0.00901746    0.03144401       5
Cr     3.65497464    0.00440204    0.02851638       6
Ni    -1.94498102   -0.04255074   -1.79241317       7
Ni     1.87866485   -0.08462170   -1.77053062       8
Ni     1.87541108    1.75092091    0.01802654       9
Ni    -0.00020701   -1.76068183   -1.70396152      10
Ni     0.02792605   -1.75537729    1.77127746      11
Ni    -1.77231074   -1.75113862    0.01052298      12
Co    -1.96387110    1.84837581    0.00403449      13
Ni     0.01700134    1.71512135    1.74016974      14
Ni    -1.73867098    0.00647912    1.73755409      15
Ni     1.77992285   -0.00978951    1.75537371      16
Co     1.83573319   -1.79913672    0.03164850      17
Ni    -0.06751246    0.64480938   -0.66236042      18
          18
Lattice="  24.8920   0.0000   0.0000   0.0000  24.8920   0.0000   0.0000   0.0000  24.8920 " ConfE="      -5950.3452" DelE="         -0.3189"
Ni     0.00908965    3.54561784    0.01536040       1
Ni    -0.01735797   -0.06993820   -3.53101925       2
Ni     0.01753718   -3.57151923    0.02668350       3
Cr    -0.05591781    0.00960472    3.59505943       4
Co    -3.60588901    0.01037713    0.02652976       5
Cr     3.62017614    0.01215771    0.01955013       6
Ni    -1.78384824   -0.01629976   -1.72246858       7
Ni     1.74776779   -0.06002408   -1.71921519       8
Ni     1.75018130    1.70330860    0.01013892       9
Ni    -0.00089215   -1.77810214   -1.70817278      10
Ni     0.02369628   -1.77676467    1.78307627      11
Ni    -1.76690089   -1.76886948    0.02208639      12
Co    -1.83844666    1.78233211   -0.00559237      13
Ni    -0.00250712    1.71706940    1.75564889      14
Ni    -1.74092743   -0.01256391    1.76391780      15
Ni     1.75449048   -0.01908960    1.75753250      16
Co     1.83317980   -1.82304378    0.04150804      17
Ni    -0.04117743    1.71201755   -1.71831118      18
