          18
Lattice="  24.8920   0.0000   0.0000   0.0000  24.8920   0.0000   0.0000   0.0000  24.8920 " ConfE="      -5924.3141" DelE="          0.0000"
Co    -0.04881965   -0.02151352    3.50949112       1
Cr    -3.48961619    0.02446185   -0.04491007       2
Ni    -0.01097848    0.03011426   -3.58498212       3
Cr     3.59228325    0.02214144   -0.01741834       4
Ni     0.02578729   -3.54130545   -0.03133504       5
Cr    -0.03239274    3.54777473    0.00504088       6
Ni    -0.01528317   -1.73425211    1.73544783       7
Co    -0.03530106    1.76484760    1.77242594       8
Cr    -1.78260752   -1.74355116   -0.01749555       9
Ni    -1.75230135    1.76248026   -0.00407310      10
Cr     1.81184593   -0.03518725    1.80495380      11
Co    -1.77726469    0.01526657   -1.78931727      12
Ni     1.79687075   -0.01131286   -1.78784207      13
Cr     1.83808179   -1.73972250    0.02593547      14
Ni     1.77522097    1.76324389   -0.00556826      15
Co     0.05960462   -1.77883495   -1.79352619      16
Ni    -0.00133976    1.79975409   -1.80899506      17
Ni     0.00000000    0.00000000    0.00000000      18
          18
Lattice="  24.8920   0.0000   0.0000   0.0000  24.8920   0.0000   0.0000   0.0000  24.8920 " ConfE="      -5923.7920" DelE="          0.5222"
Co    -0.05122409   -0.02568517    3.47439671       1
Cr    -3.43374174    0.01776409   -0.04169387       2
Ni    -0.02759191    0.03466610   -3.57165104       3
Cr     3.59199605    0.02381431   -0.01012936       4
Ni     0.04880921   -3.61599097   -0.03799404       5
Cr    -0.01313502    3.61966271   -0.03039563       6
Ni     0.06338201   -1.90385542    1.77295256       7
Co    -0.02148524    1.91904034    1.78871717       8
Cr    -1.78201607   -1.94400265   -0.10042103       9
Ni    -1.77729431    1.93877561   -0.06868642      10
Cr     1.68749347   -0.01629612    1.75429463      11
Co    -1.74522418    0.02275577   -1.70892466      12
Ni     1.73658039   -0.00336232   -1.73176283      13
Cr     1.78828675   -1.71267877    0.03484009      14
Ni     1.71818271    1.74608874    0.00592366      15
Co     0.04216826   -1.76594374   -1.72172151      16
Ni    -0.01464766    1.81382061   -1.79610309      17
Ni    -0.91439750   -0.04676193    0.82348863      18
          18
Lattice="  24.8920   0.0000   0.0000   0.0000  24.8920   0.0000   0.0000   0.0000  24.8920 " ConfE="      -5924.4224" DelE="         -0.1082"
Co     0.00326577   -0.01111598    3.54422892       1
Cr    -3.54869897    0.02057729   -0.09120756       2
Ni    -0.01123001    0.02681004   -3.59548448       3
Cr     3.61748844    0.02556145   -0.01879409       4
Ni     0.03892914   -3.56485778   -0.03459676       5
Cr    -0.02170626    3.57460760   -0.02027942       6
Ni     0.02453555   -1.72056995    1.69303963       7
Co    -0.00330703    1.77550671    1.74427337       8
Cr    -1.71018279   -1.73860217   -0.11005616       9
Ni    -1.72423527    1.76933862   -0.04026821      10
Cr     1.78136391   -0.02570214    1.77305821      11
Co    -1.73157286   -0.01224622   -1.71925788      12
Ni     1.78105485   -0.00988447   -1.76338971      13
Cr     1.82041754   -1.70091722    0.01853349      14
Ni     1.74353408    1.72360465   -0.00637311      15
Co     0.06911294   -1.75592829   -1.74812375      16
Ni     0.00662736    1.78387613   -1.80064452      17
Ni    -1.72913583   -0.00606800    1.69673786      18
