          18
Lattice="  24.8920   0.0000   0.0000   0.0000  24.8920   0.0000   0.0000   0.0000  24.8920 " ConfE="      -5940.0407" DelE="          0.0000"
Cr     3.49056339   -0.00609878   -0.14001555       1
Ni    -0.07355559   -0.02477495    3.43010858       2
Cr    -3.61960640   -0.05599846   -0.10541863       3
Ni    -0.06700740   -0.01167111   -3.66187763       4
Cr    -0.05734777   -3.53710678   -0.13268349       5
Co    -0.07756675    3.53202780   -0.07462694       6
Ni     1.71908392   -1.75501794   -0.07973529       7
Cr     1.63505053    1.70821393   -0.05807977       8
Cr    -0.06119099   -1.72507487    1.63973144       9
Cr    -0.04821438    1.71420644    1.68601815      10
Co     1.72488201    0.00480446   -1.86919123      11
Ni    -1.88776409   -0.03061114    1.70764674      12
Ni    -1.83136514   -0.02521033   -1.85306373      13
Co    -0.06804263   -1.76961195   -1.82685568      14
Cr    -0.06243851    1.67793390   -1.79781572      15
Co    -1.82607168   -1.79501495   -0.05607722      16
Co    -1.84671511    1.75584679   -0.07433132      17
Co     0.00000000    0.00000000    0.00000000      18
          18
Lattice="  24.8920   0.0000   0.0000   0.0000  24.8920   0.0000   0.0000   0.0000  24.8920 " ConfE="      -5939.6135" DelE="          0.4273"
Cr     3.43291857   -0.01756051   -0.09256214       1
Ni    -0.05895146   -0.02314499    3.40205069       2
Cr    -3.61956628   -0.05664994   -0.09446276       3
Ni    -0.06412419   -0.01026529   -3.65834910       4
Cr    -0.05785292   -3.66748955   -0.15907218       5
Co    -0.09556030    3.59216988   -0.08487480       6
Ni     1.71466398   -1.91235256   -0.13449241       7
Cr     1.66955293    1.91841209   -0.09459215       8
Cr    -0.10237398   -1.85964587    1.61628020       9
Cr    -0.09139128    1.89273623    1.73258441      10
Co     1.67344636    0.01310571   -1.76837707      11
Ni    -1.80425486   -0.02504480    1.66385004      12
Ni    -1.80015966   -0.02838674   -1.81567625      13
Co    -0.07663446   -1.77460430   -1.80896245      14
Cr    -0.05117478    1.64604570   -1.72510729      15
Co    -1.78997120   -1.81012973   -0.04994188      16
Co    -1.80922717    1.75832464   -0.06916410      17
Co     0.82239088    0.06455882    0.79699097      18
          18
Lattice="  24.8920   0.0000   0.0000   0.0000  24.8920   0.0000   0.0000   0.0000  24.8920 " ConfE="      -5940.1739" DelE="         -0.1332"
Cr     3.53993211   -0.01536961   -0.15277618       1
Ni    -0.08862784   -0.01747597    3.46013607       2
Cr    -3.64702961   -0.06154775   -0.11321527       3
Ni    -0.07476998   -0.00866796   -3.67366382       4
Cr    -0.05497498   -3.59237478   -0.14946210       5
Co    -0.08141823    3.55964960   -0.08179716       6
Ni     1.67912466   -1.75165500   -0.10875322       7
Cr     1.61491392    1.71168198   -0.09851329       8
Cr    -0.09283166   -1.72693904    1.59980115       9
Cr    -0.09038435    1.70595507    1.61821094      10
Co     1.68667535    0.02601694   -1.82652591      11
Ni    -1.84805451   -0.03371272    1.67640916      12
Ni    -1.83344418   -0.03381177   -1.84295410      13
Co    -0.08254389   -1.75701159   -1.81361416      14
Cr    -0.07581259    1.63965702   -1.75669378      15
Co    -1.79920452   -1.79659229   -0.05178711      16
Co    -1.81863336    1.73690257   -0.08608456      17
Co     1.65799024    0.03639494    1.60678027      18
