          19
Lattice="  24.8920   0.0000   0.0000   0.0000  24.8920   0.0000   0.0000   0.0000  24.8920 " ConfE="      -5932.6599" DelE="          0.0000"
Co     1.60190926   -3.20677335    1.70822500       1
Ni    -0.15935013    0.25426564   -3.63983993       2
Ni    -0.17557167    0.29790783    3.53191903       3
Cr     3.25548156    0.18146133   -0.04628595       4
Cr    -0.12287684    3.86677243   -0.09707466       5
Cr    -0.04996055   -3.15053299   -0.03361285       6
Co    -3.67083230    0.27433134   -0.04259666       7
Ni     1.58519858    0.24071080   -1.84955941       8
Ni     1.57819313    2.04703645   -0.04928442       9
Cr    -0.08847064   -1.57724083   -1.92591036      10
Ni    -1.87598707    0.25012764   -1.80952432      11
Cr     1.63624785    0.17626794    1.73429112      12
Cr    -1.98272177   -1.51973084   -0.00980884      13
Cr    -1.85145615    2.01313640   -0.00838217      14
Cr    -0.15210156    2.08995481   -1.85053746      15
Co    -0.15409710    2.03352030    1.67814203      16
Cr    -0.11044029   -1.56392959    1.85095867      17
Co    -1.85290623    0.23564739    1.66025265      18
Cr     0.00000000    0.00000000    0.00000000      19
          19
Lattice="  24.8920   0.0000   0.0000   0.0000  24.8920   0.0000   0.0000   0.0000  24.8920 " ConfE="      -5931.9977" DelE="          0.6621"
Co     1.57372595   -3.18103255    1.69349504       1
Ni    -0.17240931    0.27378978   -3.68216551       2
Ni    -0.18428001    0.31582412    3.55707888       3
Cr     3.33385295    0.26621122   -0.05024329       4
Cr    -0.11266824    3.84325787   -0.08548531       5
Cr    -0.08902403   -3.28342478   -0.02591998       6
Co    -3.67270206    0.25198933   -0.04484501       7
Ni     1.58331661    0.34192955   -1.96890128       8
Ni     1.56506411    1.99357892   -0.03241050       9
Cr    -0.07752357   -1.56966832   -2.00714043      10
Ni    -1.85727947    0.22840601   -1.80179747      11
Cr     1.66497494    0.30354769    1.86020805      12
Cr    -1.86611474   -1.50734113   -0.01945136      13
Cr    -1.83781684    1.96299576    0.02062873      14
Cr    -0.18579862    2.02023799   -1.76426416      15
Co    -0.15315442    2.04563339    1.69009795      16
Cr    -0.17076602   -1.57433889    1.94755957      17
Co    -1.75012510    0.20263248    1.57964968      18
Cr     0.76481450   -0.63092957    0.00969598      19
          19
Lattice="  24.8920   0.0000   0.0000   0.0000  24.8920   0.0000   0.0000   0.0000  24.8920 " ConfE="      -5932.7035" DelE="         -0.0437"
Co     1.60420907   -3.25251341    1.73959791       1
Ni    -0.16721508    0.26313878   -3.66011729       2
Ni    -0.18878728    0.31626462    3.56312320       3
Cr     3.34921068    0.25110095   -0.05105611       4
Cr    -0.12804605    3.85152882   -0.09228374       5
Cr    -0.12678249   -3.40622683   -0.04250161       6
Co    -3.68761043    0.26274986   -0.04764900       7
Ni     1.52263489    0.24802741   -1.79858331       8
Ni     1.55200825    2.01568570   -0.03694663       9
Cr    -0.14539834   -1.54939959   -1.92411695      10
Ni    -1.88883654    0.27266538   -1.82806282      11
Cr     1.58468653    0.23370417    1.71691973      12
Cr    -1.71535451   -1.40357622   -0.03349511      13
Cr    -1.82145890    1.95173652    0.00186996      14
Cr    -0.16051026    2.07600859   -1.82570368      15
Co    -0.16389265    2.04798520    1.68835341      16
Cr    -0.17265668   -1.49398105    1.86319855      17
Co    -1.82440588    0.23955675    1.62687983      18
Cr     1.40026015   -1.46430053    0.01968561      19
