          18
Lattice="  24.8920   0.0000   0.0000   0.0000  24.8920   0.0000   0.0000   0.0000  24.8920 " ConfE="      -5934.0668" DelE="          0.0000"
Co    -0.01210990   -3.60671157    0.02688091       1
Cr    -0.02663162   -0.16457674   -3.37319503       2
Ni    -0.04789266    3.55273337    0.12055757       3
Ni    -0.05733164   -0.01889984    3.62894343       4
Ni    -3.58505003   -0.03239822    0.08779023       5
Ni     3.47388350   -0.04129716    0.08850192       6
Ni    -1.76825145   -1.79606238    0.05210520       7
Ni     1.67967660   -1.80872552    0.04431305       8
Co    -1.71721493   -0.05995243   -1.71651415       9
Co     1.65443962   -0.04137029   -1.68489630      10
Ni    -0.05030305   -1.80013485    1.84059200      11
Cr    -0.06837971    1.85275595   -1.70429336      12
Cr     0.00388310    1.72641495    1.81349876      13
Ni    -1.80683825   -0.01600080    1.83480817      14
Co     1.72421121   -0.01562819    1.85646490      15
Co    -1.76028720    1.74729525    0.07052679      16
Cr     1.72001506    1.78201727    0.06409818      17
Cr     0.00000000    0.00000000    0.00000000      18
          18
Lattice="  24.8920   0.0000   0.0000   0.0000  24.8920   0.0000   0.0000   0.0000  24.8920 " ConfE="      -5933.3717" DelE="          0.6952"
Co    -0.00331059   -3.53305776    0.00995454       1
Cr    -0.01974100   -0.12821772   -3.41350768       2
Ni    -0.04734386    3.56203242    0.11235026       3
Ni    -0.05787966   -0.02818123    3.61053409       4
Ni    -3.64084546   -0.02698372    0.09323433       5
Ni     3.53389730   -0.03359111    0.11205432       6
Ni    -1.95938652   -1.84948919    0.12497407       7
Ni     1.84711113   -1.84843326    0.12700689       8
Co    -1.87144266   -0.03667613   -1.70499320       9
Co     1.77855941   -0.01247632   -1.67288363      10
Ni    -0.04966207   -1.78502810    1.77191134      11
Cr    -0.07347369    1.75398189   -1.61108772      12
Cr    -0.01206048    1.64945013    1.70180480      13
Ni    -1.79631309   -0.03618318    1.78813937      14
Co     1.70318051   -0.00584748    1.81374356      15
Co    -1.71727778    1.70151227    0.05481346      16
Cr     1.66334501    1.68334867    0.06943016      17
Cr    -0.04931391   -0.91353725   -0.76447040      18
          18
Lattice="  24.8920   0.0000   0.0000   0.0000  24.8920   0.0000   0.0000   0.0000  24.8920 " ConfE="      -5934.2385" DelE="         -0.1717"
Co    -0.02091015   -3.63552655    0.07458004       1
Cr    -0.02930451   -0.11868332   -3.47297124       2
Ni    -0.04936402    3.57902731    0.12080431       3
Ni    -0.05999153   -0.01473497    3.63889652       4
Ni    -3.60607923   -0.02889420    0.09602322       5
Ni     3.50087455   -0.03654264    0.10649678       6
Ni    -1.79079544   -1.78312161    0.08040186       7
Ni     1.69812365   -1.79114738    0.09479386       8
Co    -1.69683918   -0.04849243   -1.69176494       9
Co     1.63279091   -0.02312081   -1.63169830      10
Ni    -0.05686223   -1.77687910    1.81395493      11
Cr    -0.07398762    1.76143661   -1.59037960      12
Cr     0.00017188    1.68020136    1.73238200      13
Ni    -1.80673014   -0.00733552    1.83768079      14
Co     1.70314791    0.01160984    1.84741794      15
Co    -1.71982340    1.72574614    0.07727893      16
Cr     1.68455575    1.75169637    0.07271491      17
Cr     0.00012900   -1.86053164   -1.64559919      18
