          18
Lattice="  24.8920   0.0000   0.0000   0.0000  24.8920   0.0000   0.0000   0.0000  24.8920 " ConfE="      -5948.7162" DelE="          0.0000"
Ni    -3.52179932   -0.02026911    0.04737261       1
Cr     0.00640510    3.43994968    0.00694075       2
Cr     3.45800745   -0.04313867    0.00159234       3
Cr    -0.00274222   -3.63420665    0.07708184       4
Cr     0.11175455    0.01863530   -3.42596842       5
Cr    -0.00863118   -0.02410918    3.55127986       6
Ni    -1.76749024   -0.00643957   -1.68152503       7
Co    -1.77014764   -0.05557114    1.79040496       8
Cr     0.06056353    1.71190395   -1.64186517       9
Ni    -0.04496970    1.72552819    1.73189925      10
Cr    -1.73478733   -1.86332074    0.11001745      11
Co     1.82233141    1.71966571    0.05011151      12
Co     1.77878440   -1.81149590    0.03951057      13
Ni    -0.00041656   -1.82580011   -1.71405102      14
Ni     0.02503700   -1.81455223    1.80024582      15
Co     1.80545458   -0.04890731   -1.76022165      16
Co     1.78009993   -0.04933345    1.82326821      17
Co     0.00000000    0.00000000    0.00000000      18
          18
Lattice="  24.8920   0.0000   0.0000   0.0000  24.8920   0.0000   0.0000   0.0000  24.8920 " ConfE="      -5944.6687" DelE="          4.0475"
Ni    -3.60435962   -0.00234682    0.04929110       1
Cr     0.02872385    3.47864637    0.11440080       2
Cr     3.52730301   -0.07986463   -0.01504639       3
Cr     0.05067072   -3.71614532    0.08541168       4
Cr     0.10469817   -0.00319657   -3.40918936       5
Cr    -0.16364258    0.18299834    3.36892022       6
Ni    -1.69621921   -0.01644315   -1.52701504       7
Co    -1.69264460    1.42544447    2.27154827       8
Cr     0.09975866    1.69398204   -1.57396068       9
Ni     0.13158257    1.29310629    0.92963452      10
Cr    -1.80895412   -2.19530732   -0.05155248      11
Co     2.10598770    1.73615622   -0.04898839      12
Co     1.77237662   -1.79161455    0.05041147      13
Ni     0.00714806   -1.83098032   -1.65079572      14
Ni     0.09576026   -1.93021001    1.83192588      15
Co     1.76329666   -0.03035880   -1.71716865      16
Co     1.85509853   -0.10870303    1.82030672      17
Co    -1.50135180   -0.43539126    1.09010094      18
          18
Lattice="  24.8920   0.0000   0.0000   0.0000  24.8920   0.0000   0.0000   0.0000  24.8920 " ConfE="      -5948.8822" DelE="         -0.1660"
Ni    -3.52021871   -0.01777920    0.05115894       1
Cr     0.01122146    3.41315842    0.04876295       2
Cr     3.47302467   -0.03880740   -0.00216752       3
Cr    -0.00547046   -3.63841031    0.08107255       4
Cr     0.10880502    0.01142632   -3.44174054       5
Cr    -0.00869960    0.00332790    3.54895123       6
Ni    -1.75631077   -0.00078943   -1.67083134       7
Co    -0.00601321    1.73241661    1.77064996       8
Cr     0.05598014    1.74409414   -1.66696467       9
Ni    -0.00307843   -0.02057849    0.05050445      10
Cr    -1.75227797   -1.87806671    0.12004450      11
Co     1.82189843    1.71471121    0.05322708      12
Co     1.78510231   -1.81232856    0.04198745      13
Ni    -0.00332836   -1.82348740   -1.70941607      14
Ni     0.02339607   -1.81550110    1.81513314      15
Co     1.79821256   -0.04356184   -1.76181166      16
Co     1.79229037   -0.05194242    1.83629288      17
Co    -1.77252355   -0.03714820    1.81220794      18
