          18
Lattice="  24.8920   0.0000   0.0000   0.0000  24.8920   0.0000   0.0000   0.0000  24.8920 " ConfE="      -5949.8086" DelE="          0.0000"
Co     0.08040654    3.51480145   -0.03693241       1
Ni     3.53073413    0.04339118    0.01107382       2
Co     0.01187928   -3.57128001   -0.04348563       3
Cr    -3.47749355   -0.00977939   -0.02636127       4
Co     0.02093732    0.00116166   -3.60056889       5
Ni     0.04133475   -0.01506714    3.52755407       6
Co     0.07886165    1.76206625   -1.76059903       7
Co     0.07937923    1.79836498    1.72345122       8
Co     1.80389253    0.02703896   -1.78252026       9
Ni     1.78095085    0.04008037    1.74897064      10
Co    -1.74423332    1.79446545   -0.02056032      11
Ni     1.78542823   -1.79397788   -0.01467189      12
Co    -1.73482680   -1.76477942   -0.04319633      13
Co    -1.73895934    0.01297100   -1.79894507      14
Cr    -1.66002718    0.02709289    1.66842461      15
Co     0.02194425   -1.77834596   -1.83378474      16
Co     0.05641756   -1.77794550    1.74929523      17
Co     0.00000000    0.00000000    0.00000000      18
          18
Lattice="  24.8920   0.0000   0.0000   0.0000  24.8920   0.0000   0.0000   0.0000  24.8920 " ConfE="      -5949.0531" DelE="          0.7555"
Co     0.09633450    3.45051760   -0.05235257       1
Ni     3.51806155    0.03732615    0.02041666       2
Co     0.01688765   -3.55939309   -0.04424453       3
Cr    -3.50438527   -0.00208031   -0.02602945       4
Co     0.02188806   -0.02221400   -3.66669314       5
Ni     0.04290941   -0.01439638    3.57028134       6
Co    -0.03805751    1.78244016   -1.97735658       7
Co     0.03519030    1.84163650    1.89450804       8
Co     1.83398781   -0.03264203   -1.90361408       9
Ni     1.82723407   -0.00895739    1.88018508      10
Co    -1.68095725    1.74340365   -0.01784586      11
Ni     1.75548213   -1.73891433   -0.01558566      12
Co    -1.67891762   -1.67841072   -0.04074127      13
Co    -1.71150987    0.00815335   -1.79465259      14
Cr    -1.57003284    0.03628409    1.61998115      15
Co     0.02836934   -1.75739690   -1.84154755      16
Co     0.03968191   -1.71261126    1.72671221      17
Co     0.79028732    0.86479158   -0.03621813      18
          18
Lattice="  24.8920   0.0000   0.0000   0.0000  24.8920   0.0000   0.0000   0.0000  24.8920 " ConfE="      -5949.9795" DelE="         -0.1709"
Co     0.04435168    3.55479364   -0.03512835       1
Ni     3.57904769   -0.00203632    0.00265403       2
Co     0.00371897   -3.58015410   -0.04532971       3
Cr    -3.52317018   -0.01793315   -0.02343357       4
Co     0.02842394   -0.00442336   -3.62280133       5
Ni     0.03702431   -0.01934416    3.54253518       6
Co     0.03935969    1.73248473   -1.77575967       7
Co     0.04207440    1.77122228    1.73340948       8
Co     1.79521531   -0.00602390   -1.79899673       9
Ni     1.75646627    0.00945518    1.74060945      10
Co    -1.70199952    1.74096191   -0.01371833      11
Ni     1.74607880   -1.75685412   -0.02546794      12
Co    -1.69868783   -1.69831212   -0.03319313      13
Co    -1.71256977    0.00692164   -1.77972579      14
Cr    -1.65216013    0.01737670    1.63748834      15
Co     0.01591894   -1.76966870   -1.83352535      16
Co     0.02851705   -1.73604957    1.72209230      17
Co     1.78110957    1.75322120   -0.02839426      18
