          18
Lattice="  24.8920   0.0000   0.0000   0.0000  24.8920   0.0000   0.0000   0.0000  24.8920 " ConfE="      -5949.6638" DelE="          0.0000"
Co    -3.42755149    0.02893133   -0.02880362       1
Cr     0.00397024   -3.37206743    0.00520634       2
Cr     3.65135996   -0.09917389   -0.01846000       3
Cr     0.10324174    3.60580171   -0.05599621       4
Cr     0.10171173    0.06931445   -3.60709571       5
Ni     0.07891562    0.06053407    3.52542078       6
Ni    -1.70441996    0.01275092   -1.80184744       7
Co    -1.67350179    0.06883703    1.68110675       8
Ni     0.05755525   -1.70438800   -1.80534126       9
Ni     0.06011321   -1.69751575    1.72073301      10
Cr    -1.69119734    1.86051448   -0.06797043      11
Co     1.87760530   -1.72197627   -0.04913826      12
Ni     1.85415107    1.75445078   -0.02799599      13
Co     0.09374542    1.81142321   -1.78622298      14
Cr     0.04795054    1.82194736    1.73422923      15
Ni     1.84921221    0.03508218   -1.84705456      16
Ni     1.86067368    0.01770193    1.75024726      17
Cr     0.00000000    0.00000000    0.00000000      18
          18
Lattice="  24.8920   0.0000   0.0000   0.0000  24.8920   0.0000   0.0000   0.0000  24.8920 " ConfE="      -5949.0445" DelE="          0.6193"
Co    -3.38418323    0.02945074   -0.03623741       1
Cr     0.03965600   -3.36479453   -0.00123712       2
Cr     3.62197905   -0.12122676   -0.01968412       3
Cr     0.10033818    3.59756681   -0.05491710       4
Cr     0.11757512    0.09866799   -3.68265524       5
Ni     0.07802211    0.07150806    3.56971381       6
Ni    -1.70938951    0.05774807   -1.93390344       7
Co    -1.71507750    0.11026320    1.83954928       8
Ni     0.10974425   -1.69718968   -1.94068853       9
Ni     0.10336431   -1.72462927    1.86805315      10
Cr    -1.66742864    1.82120160   -0.08317871      11
Co     1.73586971   -1.71418350   -0.04984076      12
Ni     1.80712737    1.70636576   -0.03602002      13
Co     0.06978028    1.77726359   -1.76021088      14
Cr     0.01306521    1.72970715    1.65261147      15
Ni     1.83525762    0.03087087   -1.86321126      16
Ni     1.81914086    0.00367408    1.73506059      17
Cr    -0.84902168   -0.82631556    0.00974742      18
          18
Lattice="  24.8920   0.0000   0.0000   0.0000  24.8920   0.0000   0.0000   0.0000  24.8920 " ConfE="      -5949.9538" DelE="         -0.2900"
Co    -3.48612759    0.07271040   -0.03158538       1
Cr     0.06688573   -3.44214421   -0.01683460       2
Cr     3.64031544   -0.11260670   -0.01794105       3
Cr     0.10357789    3.61523368   -0.06229195       4
Cr     0.11348045    0.07929131   -3.62407358       5
Ni     0.08022217    0.06672024    3.53398732       6
Ni    -1.67476477    0.04998043   -1.80232725       7
Co    -1.63967537    0.10597080    1.64795657       8
Ni     0.08860578   -1.67819312   -1.81054773       9
Ni     0.06935102   -1.67723288    1.68052397      10
Cr    -1.63611145    1.82145196   -0.06538708      11
Co     1.84578488   -1.72007790   -0.06219053      12
Ni     1.82825026    1.74073928   -0.03323588      13
Co     0.09376297    1.81073269   -1.76818589      14
Cr     0.03533917    1.81021342    1.69930060      15
Ni     1.85384406    0.04451572   -1.85318448      16
Ni     1.84091839    0.02257261    1.72319833      17
Cr    -1.68679463   -1.69793772   -0.06194086      18
