          18
Lattice="  24.8920   0.0000   0.0000   0.0000  24.8920   0.0000   0.0000   0.0000  24.8920 " ConfE="      -5925.5563" DelE="          0.0000"
Co     3.53462126    0.02702722   -0.08357988       1
Co     0.00472681   -0.02225617   -3.53827891       2
Cr    -0.03515551   -0.04111612    3.52081964       3
Cr    -3.57475289    0.03230969   -0.00288050       4
Cr     0.03891160   -3.57092299   -0.00355408       5
Co    -0.01272356    3.53404322    0.01337968       6
Ni     1.77410309   -1.74477227    0.00024548       7
Ni    -0.00649922    1.75162108   -1.78781711       8
Ni    -1.80647384   -0.00204375   -1.79093605       9
Cr     1.78034623    1.68981927   -0.08851333      10
Co    -0.00818711   -1.78341492   -1.74033605      11
Ni    -1.81511379    0.00471135    1.76106475      12
Cr     1.76939991    0.04974704    1.78087711      13
Cr    -0.01132803    1.80079123    1.72235979      14
Cr    -1.80234992   -1.77822970   -0.01131962      15
Cr    -0.01598676   -1.84139340    1.77048658      16
Co    -1.81674457    1.77749823   -0.02566026      17
Ni     0.00000000    0.00000000    0.00000000      18
          18
Lattice="  24.8920   0.0000   0.0000   0.0000  24.8920   0.0000   0.0000   0.0000  24.8920 " ConfE="      -5921.7363" DelE="          3.8200"
Co     3.61454730    0.01192717   -0.02710551       1
Co    -0.02454444   -0.01821265   -3.57866388       2
Cr    -0.04954482   -0.05988391    3.59158213       3
Cr    -3.59182741    0.03795832   -0.00129350       4
Cr     0.04823184   -3.55951209   -0.00120056       5
Co    -0.02639837    3.56241084    0.01805730       6
Ni     1.76319932   -1.68939021    0.01850501       7
Ni    -0.08634455    1.77781418   -1.85610168       8
Ni    -1.80411084    0.02087461   -1.77301881       9
Cr     3.76276547    2.43361821   -0.20743326      10
Co     0.00913791   -1.67471358   -1.67670944      11
Ni    -1.78903165    0.00558724    1.73738367      12
Cr     1.72296168    0.02918901    1.81079288      13
Cr    -0.01195956    1.72257498    1.72550307      14
Cr    -1.74375531   -1.72595534   -0.03727219      15
Cr    -0.00669076   -1.75090631    1.73884942      16
Co    -1.80286550    1.76262480   -0.02563410      17
Ni     1.53058046    1.50284093   -0.12664753      18
          18
Lattice="  24.8920   0.0000   0.0000   0.0000  24.8920   0.0000   0.0000   0.0000  24.8920 " ConfE="      -5921.8036" DelE="          3.7527"
Co     3.61171931    0.05409175   -0.06020368       1
Co    -0.01984538   -0.02652999   -3.58368468       2
Cr    -0.04423011   -0.05587999    3.58654756       3
Cr    -3.58577759    0.03524225    0.00129702       4
Cr     0.04959761   -3.56090547   -0.00769453       5
Co    -0.04180300    3.54581943    0.00903028       6
Ni     1.76015331   -1.67648004    0.00534026       7
Ni    -0.04550357    1.74388169   -1.82181269       8
Ni    -1.79758110    0.01788326   -1.77314151       9
Cr     3.84317104    2.72918533   -0.27688017      10
Co     0.00594648   -1.68972834   -1.68787350      11
Ni    -1.77735034    0.00798922    1.73739000      12
Cr     1.71449000    0.01165409    1.80145625      13
Cr    -0.00502562    1.74604196    1.71606634      14
Cr    -1.74179556   -1.72753905   -0.03725793      15
Cr    -0.00819986   -1.76869431    1.73703399      16
Co    -1.79821033    1.75822371   -0.02343564      17
Ni     1.62687765    1.58637773   -0.06658381      18
