          18
Lattice="  24.8920   0.0000   0.0000   0.0000  24.8920   0.0000   0.0000   0.0000  24.8920 " ConfE="      -5937.1877" DelE="          0.0000"
Co     3.51473272    0.07984887   -0.02009781       1
Ni    -0.00932859   -0.01858730    3.53803470       2
Co    -0.00212193   -3.49441862   -0.01640147       3
Ni    -0.00197126    3.53947244   -0.01118590       4
Co    -0.00611255    0.03375035   -3.54737340       5
Co    -3.56392590    0.04163590    0.01287096       6
Ni     1.75426342    0.00031941    1.72921341       7
Ni     1.76335678    0.00582535   -1.74480880       8
Co     0.04218572   -1.73404960    1.67765617       9
Cr     0.07264815   -1.78690764   -1.69808884      10
Ni    -1.77367619   -0.00480801    1.75282184      11
Ni    -1.77905646    0.02366066   -1.79083783      12
Cr     1.83983642    1.84684984   -0.01644965      13
Cr     0.03202064    1.79754628    1.80163226      14
Cr    -0.00841328    1.82807289   -1.84064347      15
Co    -1.81744241   -1.77871564   -0.03109527      16
Co    -1.74335324    1.77660988   -0.01119510      17
Cr     0.00000000    0.00000000    0.00000000      18
          18
Lattice="  24.8920   0.0000   0.0000   0.0000  24.8920   0.0000   0.0000   0.0000  24.8920 " ConfE="      -5936.3803" DelE="          0.8074"
Co     3.43220932    0.03471273   -0.03590355       1
Ni    -0.01988407   -0.01082114    3.58659728       2
Co    -0.01040654   -3.51323387   -0.00308179       3
Ni     0.00252396    3.56054363   -0.01055823       4
Co    -0.03195631    0.07190979   -3.60799039       5
Co    -3.56236916    0.02156775    0.02134157       6
Ni     1.75266216    0.01406122    1.84751517       7
Ni     1.78480135    0.05848313   -1.90765117       8
Co    -0.00843467   -1.79305145    1.84990164       9
Cr    -0.02703695   -1.77452680   -1.93156019      10
Ni    -1.73504215   -0.03685125    1.72883499      11
Ni    -1.74880058    0.01929068   -1.76787155      12
Cr     1.78251076    1.74586835   -0.02675862      13
Cr     0.01338391    1.67032622    1.63877408      14
Cr    -0.01356974    1.73636972   -1.69674614      15
Co    -1.71969601   -1.77646799   -0.04329932      16
Co    -1.70515206    1.74988958   -0.00331974      17
Cr     0.92325279   -1.06972989   -0.03439448      18
          18
Lattice="  24.8920   0.0000   0.0000   0.0000  24.8920   0.0000   0.0000   0.0000  24.8920 " ConfE="      -5937.1204" DelE="          0.0673"
Co     3.52564831    0.07179573   -0.02726843       1
Ni    -0.01027158   -0.01394163    3.54376049       2
Co    -0.02901007   -3.59224507   -0.00758908       3
Ni    -0.01245282    3.58639481   -0.01480431       4
Co    -0.01851186    0.05125241   -3.57524545       5
Co    -3.58135538    0.03944355    0.01449920       6
Ni     1.71372248    0.01621340    1.69830316       7
Ni     1.70571404    0.04812899   -1.73543238       8
Co     0.04146222   -1.74546854    1.66558248       9
Cr    -0.04733719   -1.73268432   -1.72357465      10
Ni    -1.74195510   -0.00368035    1.71978980      11
Ni    -1.77407571    0.04320130   -1.77910540      12
Cr     1.75340076    1.83261766   -0.02631399      13
Cr     0.01408662    1.78200273    1.73445527      14
Cr    -0.03501110    1.81669719   -1.77797680      15
Co    -1.74100395   -1.76759383   -0.04820343      16
Co    -1.69232942    1.76254414   -0.01752243      17
Cr     1.68507073   -1.77274008   -0.09281220      18
