          18
Lattice="  24.8920   0.0000   0.0000   0.0000  24.8920   0.0000   0.0000   0.0000  24.8920 " ConfE="      -5949.2058" DelE="          0.0000"
Ni     0.01401290    3.45347583   -0.08547927       1
Ni     3.61089183   -0.03598653   -0.10769138       2
Cr     0.04109105    0.08447554    3.34349561       3
Cr     0.05042401   -0.04666230   -3.66385179       4
Co    -3.51121579   -0.03938291   -0.08083345       5
Cr     0.05472695   -3.60357773   -0.09885862       6
Ni     1.79241032    1.72947998   -0.09300098       7
Ni     1.81872750    0.01828526    1.66038814       8
Ni     0.02984370    1.72821307   -1.88562232       9
Cr    -1.76677065    1.72351376   -0.08202505      10
Ni    -1.75656740   -1.80409999   -0.09385271      11
Cr    -1.75063370    0.01686369    1.67584823      12
Co    -1.69996622   -0.05008531   -1.87818166      13
Co     0.04507179   -1.81754940   -1.85328265      14
Cr     0.12411053   -1.85587319    1.62904183      15
Cr     1.75703166   -0.07321333   -1.88127824      16
Co     1.79488568   -1.83252126   -0.11000805      17
Cr     0.00000000    0.00000000    0.00000000      18
          18
Lattice="  24.8920   0.0000   0.0000   0.0000  24.8920   0.0000   0.0000   0.0000  24.8920 " ConfE="      -5948.4166" DelE="          0.7892"
Ni     0.01631777    3.42374925   -0.08350537       1
Ni     3.67241207   -0.04710863   -0.11548964       2
Cr     0.04781441    0.02024008    3.39510507       3
Cr     0.05884699   -0.04543382   -3.62592639       4
Co    -3.57247247   -0.05842898   -0.09578125       5
Cr     0.04840732   -3.58192011   -0.07567070       6
Ni     1.93305376    1.74622161   -0.13640563       7
Ni     1.93027528   -0.03117975    1.65661259       8
Ni     0.04082030    1.68778559   -1.81088463       9
Cr    -1.92683233    1.71748548   -0.18856614      10
Ni    -1.73714945   -1.75911077   -0.08886890      11
Cr    -1.88369092   -0.08028232    1.70837496      12
Co    -1.69359936   -0.04058254   -1.84372429      13
Co     0.04483464   -1.79233285   -1.82540938      14
Cr     0.11781497   -1.78055054    1.58876401      15
Cr     1.70504531   -0.09788641   -1.78867379      16
Co     1.77612932   -1.79066659   -0.10158164      17
Cr    -0.03068063    0.87984560    0.75958277      18
          18
Lattice="  24.8920   0.0000   0.0000   0.0000  24.8920   0.0000   0.0000   0.0000  24.8920 " ConfE="      -5949.2333" DelE="         -0.0276"
Ni     0.01769370    3.49098566   -0.12155037       1
Ni     3.63038359   -0.04236115   -0.11715947       2
Cr     0.03169392   -0.01058063    3.48024031       3
Cr     0.05321453   -0.04863088   -3.66649486       4
Co    -3.54834982   -0.05204408   -0.09657050       5
Cr     0.06115664   -3.58853627   -0.08337995       6
Ni     1.77926119    1.68374717   -0.12428608       7
Ni     1.81260225   -0.00964948    1.63550629       8
Ni     0.03337946    1.68967726   -1.85469027       9
Cr    -1.76506889    1.66491997   -0.14027169      10
Ni    -1.73558239   -1.78044531   -0.12397367      11
Cr    -1.71670409   -0.04312688    1.60290447      12
Co    -1.69095730   -0.05032520   -1.88145096      13
Co     0.05618321   -1.79438539   -1.85161029      14
Cr     0.11164689   -1.71638100    1.54438338      15
Cr     1.73246577   -0.11016747   -1.88329434      16
Co     1.77696345   -1.81322955   -0.12308531      17
Cr    -0.02476856    1.66409000    1.63336463      18
