          18
Lattice="  24.8920   0.0000   0.0000   0.0000  24.8920   0.0000   0.0000   0.0000  24.8920 " ConfE="      -5937.9746" DelE="          0.0000"
Ni     3.48776822    0.01117816   -0.01580608       1
Cr    -0.00898709    3.53494814   -0.03832466       2
Cr    -3.57547891   -0.00169224   -0.03598828       3
Co     0.02903659   -3.55217013   -0.02814088       4
Ni    -0.02413299   -0.01258640   -3.61025785       5
Ni    -0.03802508   -0.01813702    3.51455257       6
Ni     1.74736447    0.00710137   -1.78173868       7
Co     1.75207499    0.01127460    1.75952401       8
Ni     0.02072742    1.77514696   -1.78527751       9
Co     0.03107163    1.79170542    1.70086805      10
Cr     1.76210526   -1.79907153    0.06976421      11
Co    -1.81755060    1.76534667   -0.03869446      12
Ni    -1.76949963   -1.77573181   -0.02319938      13
Ni     0.00838175   -1.77496408   -1.80203921      14
Cr    -0.00059373   -1.83672295    1.81428928      15
Ni    -1.80979347   -0.01523289   -1.81427620      16
Cr    -1.77140233    0.02700392    1.73807369      17
Ni     0.00000000    0.00000000    0.00000000      18
          18
Lattice="  24.8920   0.0000   0.0000   0.0000  24.8920   0.0000   0.0000   0.0000  24.8920 " ConfE="      -5937.3342" DelE="          0.6404"
Ni     3.44070706    0.03700971   -0.02242820       1
Cr     0.01288295    3.45210496   -0.02610871       2
Cr    -3.59250734    0.01776195   -0.04208242       3
Co     0.03727786   -3.53604525   -0.03590942       4
Ni    -0.04277856   -0.02185494   -3.67826097       5
Ni    -0.04295430   -0.02143799    3.58263675       6
Ni     1.77052955   -0.00444347   -1.92660652       7
Co     1.81170377    0.00560171    1.92093383       8
Ni    -0.03989178    1.79034820   -1.94830969       9
Co    -0.02305103    1.84154986    1.91160513      10
Cr     1.69733239   -1.68595126    0.05271931      11
Co    -1.75575862    1.72182080   -0.04524868      12
Ni    -1.72094976   -1.70789151   -0.03561388      13
Ni     0.00633161   -1.72964878   -1.81538580      14
Cr     0.01890028   -1.73252420    1.76552077      15
Ni    -1.82913029   -0.00945578   -1.85280814      16
Cr    -1.66863664    0.05882507    1.68367917      17
Ni     0.60733251    0.68543902    0.02663799      18
          18
Lattice="  24.8920   0.0000   0.0000   0.0000  24.8920   0.0000   0.0000   0.0000  24.8920 " ConfE="      -5938.0442" DelE="         -0.0696"
Ni     3.52377680   -0.00225208   -0.01867355       1
Cr    -0.06519478    3.57346127   -0.02625696       2
Cr    -3.58451959   -0.00094694   -0.04583449       3
Co     0.02975120   -3.56950039   -0.02912560       4
Ni    -0.02978754   -0.01535312   -3.62989423       5
Ni    -0.04604190   -0.02819297    3.55121656       6
Ni     1.71694621   -0.00391699   -1.77838456       7
Co     1.69908244   -0.04284576    1.73506328       8
Ni    -0.02042032    1.76398292   -1.81655416       9
Co    -0.05261069    1.71061132    1.72587479      10
Cr     1.69792424   -1.71715197    0.08870541      11
Co    -1.76226204    1.71688222   -0.03985511      12
Ni    -1.71610093   -1.72581356   -0.01319620      13
Ni     0.00940704   -1.74989619   -1.77929697      14
Cr    -0.01198266   -1.80696682    1.79973071      15
Ni    -1.80130470   -0.01680025   -1.81138389      16
Cr    -1.72561645    0.02810465    1.69956819      17
Ni     1.67738088    1.74988814   -0.00195953      18
