          18
Lattice="  24.8920   0.0000   0.0000   0.0000  24.8920   0.0000   0.0000   0.0000  24.8920 " ConfE="      -5948.7437" DelE="          0.0000"
Co     0.02044034   -0.04289670    3.50618412       1
Co    -0.00372158   -3.48618610    0.09894505       2
Cr     0.02248686    3.55630060    0.00994230       3
Cr    -0.02889510    0.06618860   -3.58807156       4
Cr     3.59638830    0.02530610   -0.04398149       5
Co    -3.55662515    0.04618556    0.01313838       6
Ni     1.75828641   -1.74577851    0.02620351       7
Ni    -1.76088728   -0.03961544    1.77476063       8
Ni    -1.76644407   -1.75528379    0.01590058       9
Cr     1.68827015   -0.14474895    1.88152764      10
Ni    -0.01089026    1.76790526    1.78774013      11
Ni    -0.00300512   -1.72853732   -1.81370038      12
Ni     1.77841222    1.74869991    0.04238136      13
Ni     1.74738479    0.04132553   -1.80770459      14
Cr    -0.02774028    1.84496962   -1.76250742      15
Co    -1.77110381    1.80375490    0.01736772      16
Cr    -1.78605394    0.04943059   -1.76688878      17
Ni     0.00000000    0.00000000    0.00000000      18
          18
Lattice="  24.8920   0.0000   0.0000   0.0000  24.8920   0.0000   0.0000   0.0000  24.8920 " ConfE="      -5948.0737" DelE="          0.6700"
Co    -0.00600514   -0.04071597    3.51311518       1
Co    -0.00958852   -3.45522487    0.08500771       2
Cr     0.02667349    3.55641720    0.00630457       3
Cr    -0.04127566    0.05174390   -3.60374104       4
Cr     3.63768929    0.03457729   -0.06239657       5
Co    -3.60574144    0.05527016   -0.00440599       6
Ni     1.91204722   -1.79444480   -0.04756150       7
Ni    -1.92655420    0.01815527    1.80440259       8
Ni    -1.91361766   -1.77359139   -0.01610111       9
Cr     1.87076105   -0.10013651    1.91392802      10
Ni    -0.01711939    1.68559033    1.75583497      11
Ni    -0.01512643   -1.69277979   -1.74449794      12
Ni     1.76275781    1.70232759    0.04510283      13
Ni     1.73742320    0.02919551   -1.79333397      14
Cr    -0.04549927    1.76469486   -1.70510194      15
Co    -1.74511981    1.75088808   -0.00477654      16
Cr    -1.75383777    0.05409644   -1.70820988      17
Ni     0.02594519   -0.72166769    0.74363034      18
          18
Lattice="  24.8920   0.0000   0.0000   0.0000  24.8920   0.0000   0.0000   0.0000  24.8920 " ConfE="      -5948.9533" DelE="         -0.2096"
Co     0.00104312   -0.00244919    3.56979531       1
Co    -0.00662723   -3.53780340    0.03877599       2
Cr     0.03058478    3.56720616   -0.00093326       3
Cr    -0.04173683    0.06530319   -3.61532209       4
Cr     3.62792858    0.04084147   -0.06229616       5
Co    -3.57976728    0.05348060    0.00686985       6
Ni     1.75485307   -1.70869753    0.00041860       7
Ni    -1.77606024   -0.00619724    1.75621341       8
Ni    -1.76408865   -1.71839651   -0.01114238       9
Cr     1.75334721   -0.07321669    1.84729348      10
Ni    -0.00744255    1.71422726    1.75628124      11
Ni    -0.01356588   -1.68731723   -1.77323206      12
Ni     1.75172916    1.72123775    0.03129096      13
Ni     1.71088448    0.05085937   -1.78426256      14
Cr    -0.04362861    1.81320884   -1.74382609      15
Co    -1.72003418    1.75421626   -0.02514204      16
Cr    -1.74585669    0.07424964   -1.74363005      17
Ni     0.00400056   -1.74330002    1.75451693      18
