          18
Lattice="  24.8920   0.0000   0.0000   0.0000  24.8920   0.0000   0.0000   0.0000  24.8920 " ConfE="      -5935.2650" DelE="          0.0000"
Ni    -0.02646685   -0.01745584   -3.48822222       1
Co     0.02691705    3.46176855   -0.02903118       2
Cr    -0.00444377   -0.03585621    3.57033510       3
Ni    -0.01205324   -3.56487393    0.03273426       4
Co     3.54004441   -0.03655900   -0.01233066       5
Ni    -3.56443571   -0.03952767    0.01982769       6
Cr     1.68387393    0.07255691   -1.68370421       7
Cr    -1.67295836   -0.01834278   -1.64875325       8
Cr     1.73223707    1.66087394    0.08805745       9
Co    -1.73662418    1.70841451   -0.02572338      10
Co     0.01974362   -1.79220130   -1.75051468      11
Co    -0.02557425    1.72445945    1.82488573      12
Co    -0.02374148   -1.78381479    1.82223256      13
Co     1.75003236   -1.74732244   -0.00612826      14
Co    -1.79322800   -1.77419648   -0.01127287      15
Co     1.75851798   -0.05938911    1.79787416      16
Co    -1.78330376   -0.02310415    1.79560459      17
Co     0.00000000    0.00000000    0.00000000      18
          18
Lattice="  24.8920   0.0000   0.0000   0.0000  24.8920   0.0000   0.0000   0.0000  24.8920 " ConfE="      -5934.7209" DelE="          0.5440"
Ni    -0.01472246    0.00879222   -3.46504706       1
Co     0.01134705    3.38399316   -0.03385017       2
Cr    -0.00830861   -0.02603413    3.59134388       3
Ni    -0.00839581   -3.54806574    0.02461854       4
Co     3.58880101   -0.03505393    0.00640162       5
Ni    -3.63216341   -0.05457545    0.03060920       6
Cr     1.92040811    0.01625159   -1.77616236       7
Cr    -1.87190597   -0.07532200   -1.69948278       8
Cr     1.89580831    1.66481788    0.16434014       9
Co    -1.93161628    1.74842794    0.06370597      10
Co     0.01591606   -1.70865476   -1.72208840      11
Co    -0.03395573    1.68405333    1.77067367      12
Co    -0.02680639   -1.73758693    1.79324954      13
Co     1.70628780   -1.64828543   -0.03186597      14
Co    -1.77360597   -1.71686914   -0.02140414      15
Co     1.75466611   -0.04313555    1.78891542      16
Co    -1.78696517   -0.01913891    1.78519807      17
Co     0.02229636    0.71362084   -0.70061804      18
          18
Lattice="  24.8920   0.0000   0.0000   0.0000  24.8920   0.0000   0.0000   0.0000  24.8920 " ConfE="      -5935.4107" DelE="         -0.1457"
Ni    -0.01814371   -0.05381752   -3.53691791       1
Co     0.00973771    3.51579665    0.01563434       2
Cr    -0.00271795   -0.04411314    3.59886752       3
Ni    -0.01566528   -3.58097282    0.03710916       4
Co     3.55531518   -0.04728592   -0.00982412       5
Ni    -3.58419863   -0.04718217    0.02761048       6
Cr     1.66021281   -0.05999750   -1.62625294       7
Cr    -1.63503609   -0.07102353   -1.59253941       8
Cr     1.72037024    1.61697878    0.08756193       9
Co    -1.72258550    1.66740156    0.00500287      10
Co     0.00354710   -1.75409933   -1.72373759      11
Co    -0.01306144    1.69761075    1.78292286      12
Co    -0.02883323   -1.77620848    1.82432601      13
Co     1.70659694   -1.71630989   -0.00258460      14
Co    -1.77089196   -1.74552418   -0.00541727      15
Co     1.72395495   -0.05910283    1.76844295      16
Co    -1.75799897   -0.02778804    1.78490335      17
Co     0.03965723    1.71883460   -1.72433714      18
