          18
Lattice="  24.8920   0.0000   0.0000   0.0000  24.8920   0.0000   0.0000   0.0000  24.8920 " ConfE="      -5950.6497" DelE="          0.0000"
Ni    -0.01567732   -0.05523697    3.56412039       1
Ni     0.03102885   -3.57453351    0.00272617       2
Ni     3.55448211   -0.01832229    0.01635832       3
Co    -3.52272228   -0.03064620    0.06206513       4
Co     0.03378926    3.52530204    0.00263678       5
Co     0.01262174   -0.00676496   -3.57711795       6
Ni     0.02507808    1.71132686    1.78952622       7
Ni    -1.73867936   -1.76876428    0.07149018       8
Cr    -1.69879051    1.66234188    0.02642890       9
Ni     1.81453781   -0.04031269    1.78515282      10
Co    -0.00940787   -1.78443394    1.80844539      11
Ni     1.78403191   -1.78906133    0.00320549      12
Co     0.03026593    1.77101184   -1.76991758      13
Cr    -1.70239054   -0.03556412   -1.77353317      14
Co     1.80924972    1.75727092   -0.00104724      15
Co     0.01143516   -1.76329929   -1.79519602      16
Cr     1.75090615   -0.02574554   -1.82329914      17
Co     0.00000000    0.00000000    0.00000000      18
          18
Lattice="  24.8920   0.0000   0.0000   0.0000  24.8920   0.0000   0.0000   0.0000  24.8920 " ConfE="      -5949.8831" DelE="          0.7665"
Ni    -0.02442115   -0.05809079    3.54304858       1
Ni     0.04576948   -3.62926557   -0.00070816       2
Ni     3.54807553   -0.02235482    0.02338462       3
Co    -3.46338983   -0.04580640    0.05241366       4
Co     0.05066899    3.56608565    0.00601784       5
Co     0.01285200   -0.00309818   -3.58949664       6
Ni     0.07344980    1.82325597    1.82705626       7
Ni    -1.78076678   -1.97711903   -0.03400925       8
Cr    -1.77790456    1.89432182   -0.02674759       9
Ni     1.73553586   -0.03904461    1.74477223      10
Co    -0.01432667   -1.86370042    1.80755298      11
Ni     1.74537267   -1.77994388    0.00809762      12
Co     0.02255128    1.72940338   -1.70126283      13
Cr    -1.62144435   -0.02179285   -1.73106344      14
Co     1.79785794    1.75785765    0.01076710      15
Co     0.01031617   -1.73410502   -1.76318871      16
Cr     1.65779767   -0.01702781   -1.74704045      17
Co    -0.84476727    0.02723279    0.64853001      18
          18
Lattice="  24.8920   0.0000   0.0000   0.0000  24.8920   0.0000   0.0000   0.0000  24.8920 " ConfE="      -5950.8188" DelE="         -0.1691"
Ni    -0.00507875   -0.05311502    3.58417088       1
Ni     0.03999057   -3.60402198   -0.00542354       2
Ni     3.55513443   -0.02057458    0.01611085       3
Co    -3.57300383   -0.05370858   -0.00087936       4
Co     0.04138388    3.54769581    0.00194855       5
Co     0.02113459   -0.00039910   -3.60077004       6
Ni     0.04169850    1.71380531    1.75783992       7
Ni    -1.70425402   -1.78874952    0.02168099       8
Cr    -1.68853146    1.67925635    0.00949326       9
Ni     1.76848612   -0.04314646    1.75527960      10
Co     0.00523836   -1.80408893    1.79778240      11
Ni     1.76027176   -1.76902963   -0.00214399      12
Co     0.03629862    1.72542527   -1.71776417      13
Cr    -1.60065807   -0.01311764   -1.68821267      14
Co     1.79970502    1.73907759   -0.00340864      15
Co     0.02895518   -1.71782986   -1.77364467      16
Cr     1.70172063   -0.02458182   -1.79644232      17
Co    -1.75734225   -0.02600415    1.73311209      18
