          18
Lattice="  24.8920   0.0000   0.0000   0.0000  24.8920   0.0000   0.0000   0.0000  24.8920 " ConfE="      -5945.3083" DelE="          0.0000"
Ni     3.55115842    0.01371806    0.00465796       1
Co     0.02406577   -3.52781059    0.07739386       2
Cr     0.00226847    0.02040403   -3.40776308       3
Ni     0.04018180    0.04174662    3.60468676       4
Co    -0.00495145    3.58333351    0.05071589       5
Cr    -3.45750824   -0.04435099    0.02352013       6
Ni     1.72967984   -1.74370760    0.00344354       7
Co     1.71992976    0.01703295   -1.77149638       8
Ni     0.03310623    1.80461833    1.79502581       9
Ni    -1.71254157    0.02203434    1.80026699      10
Co    -1.70617344   -0.04478689   -1.71605383      11
Cr    -1.57948727   -1.75072933   -0.05305548      12
Cr     1.83527312    0.04577231    1.78830610      13
Co     0.04258069   -1.75968277    1.84672047      14
Co     1.79560227    1.80582934    0.02369420      15
Co     0.01298865    1.81348446   -1.72610751      16
Cr    -1.76895739    1.80245053    0.03115124      17
Co     0.00000000    0.00000000    0.00000000      18
          18
Lattice="  24.8920   0.0000   0.0000   0.0000  24.8920   0.0000   0.0000   0.0000  24.8920 " ConfE="      -5944.5816" DelE="          0.7266"
Ni     3.63241514    0.03186404    0.01823802       1
Co     0.05611026   -3.50576138    0.07783799       2
Cr    -0.02994087    0.02497535   -3.40014275       3
Ni     0.04251069    0.03194591    3.59431129       4
Co     0.00171773    3.57449721    0.03770365       5
Cr    -3.54664456    0.00689023    0.04764123       6
Ni     1.92232147   -1.76662158    0.08367386       7
Co     1.87202667    0.05821967   -1.75220089       8
Ni     0.04500390    1.77589258    1.75726412       9
Ni    -1.67907612    0.03760868    1.73542878      10
Co    -1.92965224    0.07636522   -1.71320983      11
Cr    -1.78091509   -1.77542133    0.09559550      12
Cr     1.82614390    0.04366150    1.73084311      13
Co     0.06110605   -1.71928971    1.74451141      14
Co     1.79483903    1.76761433    0.02715349      15
Co    -0.01026041    1.67083688   -1.66145988      16
Cr    -1.74331114    1.75748322    0.00310245      17
Co    -0.03578247   -1.08047690   -1.05042518      18
          18
Lattice="  24.8920   0.0000   0.0000   0.0000  24.8920   0.0000   0.0000   0.0000  24.8920 " ConfE="      -5945.1835" DelE="          0.1247"
Ni     3.58309262    0.02349946    0.01586664       1
Co     0.04121654   -3.55431281    0.08721747       2
Cr    -0.00875210    0.06559338   -3.45429271       3
Ni     0.04005899    0.04059063    3.61364111       4
Co    -0.00094287    3.59222506    0.04959695       5
Cr    -3.51123563   -0.02759502    0.03396880       6
Ni     1.72422662   -1.69028571    0.03460116       7
Co     1.73290357    0.04829867   -1.73403965       8
Ni     0.04384905    1.78112899    1.76633578       9
Ni    -1.66994201    0.02893783    1.74299093      10
Co    -1.72827022    0.00216418   -1.64091589      11
Cr    -1.59686451   -1.71149789   -0.02308402      12
Cr     1.83567938    0.05397396    1.78352426      13
Co     0.03913307   -1.74526729    1.81586259      14
Co     1.78521353    1.78328305    0.03346892      15
Co     0.00324598    1.75571198   -1.67795508      16
Cr    -1.75150518    1.78167727    0.02380994      17
Co    -0.00944587   -1.71157974   -1.72510805      18
