          18
Lattice="  24.8920   0.0000   0.0000   0.0000  24.8920   0.0000   0.0000   0.0000  24.8920 " ConfE="      -5936.6695" DelE="          0.0000"
Co    -0.04583166    0.03087524    3.52897644       1
Co     3.53301812   -0.00714278   -0.02800091       2
Co    -3.58140020    0.02994736   -0.03545542       3
Cr    -0.00901997   -0.02752249   -3.58013109       4
Cr     0.01919220    3.47313117   -0.01068704       5
Co    -0.02175532   -3.56919087   -0.00598490       6
Ni     0.01122506   -1.74168989    1.78518440       7
Ni     1.75184662   -1.73735563    0.01552231       8
Co     0.00137161    1.72470501    1.77035211       9
Co     1.73534797    1.76302408   -0.05212715      10
Ni    -0.02151717   -1.79535344   -1.79177915      11
Ni    -1.79860958   -1.76046365    0.00062775      12
Co    -1.82732897    0.02746606    1.78433249      13
Co     1.76780700    0.00099431   -1.83159279      14
Co    -1.79247759    0.03503532   -1.77285070      15
Co    -0.02344468    1.74630032   -1.81581747      16
Cr    -1.77729373    1.76026295   -0.00149233      17
Ni     0.00000000    0.00000000    0.00000000      18
          18
Lattice="  24.8920   0.0000   0.0000   0.0000  24.8920   0.0000   0.0000   0.0000  24.8920 " ConfE="      -5936.0038" DelE="          0.6658"
Co    -0.02692843    0.02283290    3.48257281       1
Co     3.48534052   -0.01891546   -0.01452451       2
Co    -3.58871908    0.02448917   -0.02784770       3
Cr     0.00497557   -0.02898776   -3.57123727       4
Cr    -0.00059816    3.56746132   -0.00847643       5
Co    -0.04977562   -3.64319723   -0.02934477       6
Ni    -0.04686690   -1.91920810    1.80129407       7
Ni     1.77878582   -1.94137620   -0.04457545       8
Co    -0.05568364    1.90828673    1.82306700       9
Co     1.77449887    1.94088228   -0.10581947      10
Ni    -0.01776794   -1.81224169   -1.77852555      11
Ni    -1.77764326   -1.76804105    0.00731062      12
Co    -1.75928921    0.02679232    1.74660720      13
Co     1.73284327   -0.00795103   -1.74692386      14
Co    -1.72174657    0.03603386   -1.69488375      15
Co    -0.01601715    1.73849464   -1.76097616      16
Cr    -1.71456368    1.71683231    0.01198951      17
Ni     0.81717332    0.01305902    0.79462824      18
          18
Lattice="  24.8920   0.0000   0.0000   0.0000  24.8920   0.0000   0.0000   0.0000  24.8920 " ConfE="      -5936.7442" DelE="         -0.0747"
Co    -0.07720211    0.02597266    3.56158343       1
Co     3.56253686   -0.00950052   -0.03922496       2
Co    -3.60460026    0.02462275   -0.03379816       3
Cr    -0.01292636   -0.02839472   -3.60619100       4
Cr     0.00669024    3.51423887   -0.01154694       5
Co    -0.03222943   -3.59061625   -0.01850339       6
Ni    -0.03105253   -1.75938580    1.76127340       7
Ni     1.70150359   -1.72014440   -0.02319363       8
Co    -0.03850919    1.70852954    1.71734751       9
Co     1.70741351    1.73325904   -0.05465934      10
Ni    -0.02789240   -1.76368349   -1.78556292      11
Ni    -1.77507042   -1.72906442   -0.00230100      12
Co    -1.79703681    0.02604115    1.75775002      13
Co     1.74634630    0.00589309   -1.80426031      14
Co    -1.75963312    0.04408390   -1.72755699      15
Co    -0.02771000    1.71279336   -1.76787601      16
Cr    -1.74188202    1.71230369   -0.00073234      17
Ni     1.73596910   -0.03025844    1.76967480      18
