          18
Lattice="  24.8920   0.0000   0.0000   0.0000  24.8920   0.0000   0.0000   0.0000  24.8920 " ConfE="      -5949.4607" DelE="          0.0000"
Ni     0.03254863    0.00812961    3.52238149       1
Ni     3.59836341    0.00072668    0.00933162       2
Co    -3.39932475    0.11076573    0.07979677       3
Cr     0.04655821    0.08427084   -3.61070190       4
Cr     0.00776281   -3.56910716    0.00238840       5
Cr    -0.00458652    3.61047029    0.00380616       6
Ni     0.00769731   -1.75392363    1.78062093       7
Ni    -0.02492510    1.75664245    1.72353720       8
Ni     0.05663494   -1.73833028   -1.77624593       9
Ni     0.05067922    1.78972012   -1.76158443      10
Ni    -1.73911626    0.02039080   -1.81004707      11
Co    -1.68401574   -1.64550947    0.03514168      12
Cr    -1.76653881    1.78881615   -0.00826934      13
Ni     1.82557748    0.01603694    1.76183664      14
Ni     1.80714811   -1.77209920    0.01862644      15
Cr     1.83583528    0.02601651   -1.76365605      16
Co     1.80901198    1.79424691   -0.00397617      17
Cr     0.00000000    0.00000000    0.00000000      18
          18
Lattice="  24.8920   0.0000   0.0000   0.0000  24.8920   0.0000   0.0000   0.0000  24.8920 " ConfE="      -5948.7581" DelE="          0.7026"
Ni     0.02514307    0.01914613    3.44923600       1
Ni     3.60156071    0.00105695    0.01873284       2
Co    -3.41246003    0.08918771    0.07011541       3
Cr     0.04795727    0.08671317   -3.57879557       4
Cr     0.02370979   -3.65702858   -0.02447869       5
Cr     0.03622754    3.71425105    0.00485472       6
Ni     0.03092127   -1.85146702    1.77315454       7
Ni     0.04190519    1.90909696    1.74352477       8
Ni     0.04373559   -1.70983668   -1.70825875       9
Ni     0.04634962    1.77232366   -1.68635811      10
Ni    -1.71411128    0.01328911   -1.74265218      11
Co    -1.75503714   -1.83077318   -0.01171002      12
Cr    -1.74642411    1.91686717   -0.04921120      13
Ni     1.74936957    0.03018815    1.70589911      14
Ni     1.77846830   -1.76483023    0.02265600      15
Cr     1.77416641    0.03452391   -1.67809441      16
Co     1.80913163    1.81751548    0.00394036      17
Cr    -0.81815094    0.02728290    0.69700290      18
          18
Lattice="  24.8920   0.0000   0.0000   0.0000  24.8920   0.0000   0.0000   0.0000  24.8920 " ConfE="      -5949.6503" DelE="         -0.1896"
Ni     0.04525493    0.00755716    3.52684654       1
Ni     3.62054756    0.00273197    0.01430949       2
Co    -3.51644837    0.07636968    0.01831143       3
Cr     0.04808478    0.09657902   -3.58732529       4
Cr     0.02343805   -3.60298569   -0.00952370       5
Cr     0.01023672    3.64114516    0.00430783       6
Ni     0.03469003   -1.76354720    1.74893946       7
Ni     0.00887641    1.76367593    1.69075172       8
Ni     0.06536228   -1.70385667   -1.73208887       9
Ni     0.06244972    1.77028106   -1.71914758      10
Ni    -1.70889108    0.02556015   -1.73568204      11
Co    -1.70850747   -1.66590684    0.04180981      12
Cr    -1.74231576    1.80467761   -0.00987241      13
Ni     1.79539452    0.02183832    1.73112309      14
Ni     1.80970124   -1.75744421    0.01052228      15
Cr     1.82110738    0.03681298   -1.72284410      16
Co     1.83470127    1.80489382   -0.00991659      17
Cr    -1.74147739   -0.02782212    1.64551348      18
