          18
Lattice="  24.8920   0.0000   0.0000   0.0000  24.8920   0.0000   0.0000   0.0000  24.8920 " ConfE="      -5949.1827" DelE="          0.0000"
Cr    -0.04006621   -3.57876262    0.10163862       1
Co     3.46729789   -0.05637916    0.03155083       2
Cr    -3.73828197    0.02418832   -0.02913655       3
Co    -0.02989373    3.47154894   -0.01273446       4
Co    -0.06699782   -0.08149319   -3.49225525       5
Co    -0.05674907   -0.03823266    3.59681681       6
Ni    -0.05105836   -1.78706070    1.78505155       7
Ni     1.70154815   -0.06847266    1.76416449       8
Co    -0.04557431   -1.81998346   -1.65813366       9
Co     1.70816893   -0.10586009   -1.69742244      10
Ni    -1.85469495   -0.02405847   -1.72717321      11
Co    -1.88581292   -1.76555588    0.06234233      12
Co     1.73123206    1.76373387    0.02655855      13
Co    -1.85606525    1.71871948    0.03437155      14
Cr    -0.04314328    1.70663419   -1.71764669      15
Cr    -1.85214670    0.00048980    1.81518855      16
Co    -0.06793346    1.71512027    1.78450795      17
Cr     0.00000000    0.00000000    0.00000000      18
          18
Lattice="  24.8920   0.0000   0.0000   0.0000  24.8920   0.0000   0.0000   0.0000  24.8920 " ConfE="      -5948.3992" DelE="          0.7835"
Cr    -0.06948218   -3.57582348    0.11296514       1
Co     3.44527926   -0.05843101    0.02639321       2
Cr    -3.67461839    0.00509073   -0.01584156       3
Co    -0.02295786    3.48782649   -0.01294829       4
Co    -0.08140795   -0.06740099   -3.57095050       5
Co    -0.07207664   -0.01557317    3.68740434       6
Ni    -0.11548622   -1.77702043    1.92975164       7
Ni     1.69973516   -0.00267594    1.91333613       8
Co    -0.10997706   -1.83244313   -1.79761467       9
Co     1.70238882   -0.04021117   -1.85773051      10
Ni    -1.78748624   -0.01662738   -1.70360869      11
Co    -1.77598553   -1.74063984    0.07374958      12
Co     1.61794124    1.61894514    0.00800823      13
Co    -1.82666244    1.69927228    0.03251699      14
Cr    -0.00192780    1.62677532   -1.66073172      15
Cr    -1.80774650    0.02097777    1.78665425      16
Co    -0.09626445    1.64697857    1.74962240      17
Cr     1.09119269   -1.15160757    0.00456434      18
          18
Lattice="  24.8920   0.0000   0.0000   0.0000  24.8920   0.0000   0.0000   0.0000  24.8920 " ConfE="      -5948.8730" DelE="          0.3097"
Cr    -0.09060779   -3.62387316    0.08997328       1
Co     3.49279201   -0.03569324    0.03368008       2
Cr    -3.71468954    0.02339613   -0.02303401       3
Co    -0.02564423    3.52255854   -0.01162412       4
Co    -0.07628343   -0.07844530   -3.53286852       5
Co    -0.06172414   -0.03432174    3.62931491       6
Ni    -0.08680719   -1.76413088    1.79697700       7
Ni     1.65968028   -0.03224902    1.75802788       8
Co    -0.07927329   -1.80678521   -1.68298039       9
Co     1.65145943   -0.06391560   -1.70985066      10
Ni    -1.81696698   -0.01017390   -1.70005239      11
Co    -1.84305494   -1.75355999    0.06460293      12
Co     1.65522325    1.71118399    0.00525992      13
Co    -1.80699283    1.69488422    0.04395410      14
Cr    -0.02511305    1.68227868   -1.67113477      15
Cr    -1.83596543    0.01795769    1.79060852      16
Co    -0.08696761    1.69779643    1.76932801      17
Cr     1.63863290   -1.74967520    0.00950124      18
