          18
Lattice="  24.8920   0.0000   0.0000   0.0000  24.8920   0.0000   0.0000   0.0000  24.8920 " ConfE="      -5927.7337" DelE="          0.0000"
Ni     3.51423797    0.00412449    0.03756978       1
Ni     0.01480922   -0.00831832    3.44844494       2
Ni    -3.60676260   -0.03696302   -0.02404941       3
Cr    -0.01951750    3.56637540    0.00177877       4
Co    -0.01343724   -3.58059951   -0.03858753       5
Co    -0.02292077    0.00809584   -3.57036787       6
Ni     1.77894536    1.72913730    0.07606237       7
Ni    -1.81536618   -0.05120989    1.74636242       8
Cr    -0.04495400    1.75593048    1.73221078       9
Co     0.03459526   -1.80072788    1.73732201      10
Co     1.76734089   -1.76538219   -0.03540011      11
Cr    -1.84198062    1.75148687    0.00489808      12
Co    -1.79875746   -1.82480511   -0.06541415      13
Co    -1.80218440    0.00219598   -1.79408466      14
Cr     1.69404609   -0.03759006   -1.78574206      15
Cr    -0.00540549    1.75717933   -1.75958335      16
Co    -0.01201444   -1.78072684   -1.81227697      17
Co     0.00000000    0.00000000    0.00000000      18
          18
Lattice="  24.8920   0.0000   0.0000   0.0000  24.8920   0.0000   0.0000   0.0000  24.8920 " ConfE="      -5926.8934" DelE="          0.8403"
Ni     3.49668510    0.00028838    0.04058545       1
Ni     0.00276923   -0.00655468    3.44536386       2
Ni    -3.61316983   -0.04217341   -0.02158713       3
Cr    -0.02009777    3.64770734   -0.05217791       4
Co    -0.04654359   -3.64834847   -0.04286795       5
Co    -0.01158110    0.01246106   -3.55650489       6
Ni     1.87776329    1.90784813   -0.00855632       7
Ni    -1.72601628   -0.05784790    1.68753316       8
Cr    -0.07768766    1.88049891    1.67086114       9
Co    -0.03795900   -1.97523038    1.78392698      10
Co     1.77016377   -1.89794677   -0.04655783      11
Cr    -1.82107753    1.71089144   -0.00919239      12
Co    -1.79107437   -1.84064510   -0.05916624      13
Co    -1.78030868   -0.00082576   -1.76009083      14
Cr     1.60850272   -0.14471205   -1.61406819      15
Cr     0.04464261    1.65115200   -1.58780271      16
Co    -0.03084319   -1.76812619   -1.75992887      17
Co     0.96762643    0.02031914    1.05324512      18
          18
Lattice="  24.8920   0.0000   0.0000   0.0000  24.8920   0.0000   0.0000   0.0000  24.8920 " ConfE="      -5927.5547" DelE="          0.1790"
Ni     3.56422529   -0.01099059   -0.01398423       1
Ni    -0.01686069   -0.00594856    3.49788384       2
Ni    -3.62344970   -0.04013019   -0.02357174       3
Cr    -0.01894835    3.60319007   -0.01666495       4
Co    -0.01979229   -3.59747306   -0.03956337       5
Co    -0.02543968    0.00730536   -3.57728673       6
Ni     1.77866388    1.73682662   -0.00320236       7
Ni    -1.75732641   -0.05920174    1.69777877       8
Cr    -0.02372770    1.69939008    1.64875625       9
Co     0.00645647   -1.80488251    1.72267861      10
Co     1.73574128   -1.76171049   -0.04137842      11
Cr    -1.84213662    1.73196140    0.00677968      12
Co    -1.80219705   -1.83202807   -0.07065841      13
Co    -1.78538795    0.00671608   -1.75976516      14
Cr     1.63562871   -0.12449992   -1.69911896      15
Cr    -0.02298271    1.66654138   -1.65175252      16
Co    -0.02773705   -1.74273706   -1.76851071      17
Co     1.71809425   -0.01705035    1.70924459      18
