          18
Lattice="  24.8920   0.0000   0.0000   0.0000  24.8920   0.0000   0.0000   0.0000  24.8920 " ConfE="      -5939.9414" DelE="          0.0000"
Cr     0.05160518    3.59488127    0.10930264       1
Cr     3.36452243    0.04255998    0.02010511       2
Ni    -0.07593039   -3.59924171    0.07077746       3
Ni    -3.62827694   -0.01716604    0.05975855       4
Ni    -0.06321986    0.00853704   -3.49412660       5
Ni    -0.08013430   -0.01486508    3.61008868       6
Co    -0.03677193    1.81910177   -1.66393889       7
Ni    -0.05443309    1.76497188    1.79857461       8
Co     1.68861015    0.05217955   -1.68061259       9
Cr     1.66916945    0.06068842    1.75957102      10
Co    -1.85627848    1.80499008    0.02346007      11
Cr     1.69380021   -1.82432215    0.05826939      12
Co    -1.82367942   -1.82361620    0.04422207      13
Cr    -1.79785834   -0.02113705   -1.65232012      14
Co    -1.77855475   -0.01107256    1.74413037      15
Co    -0.05267769   -1.80747758   -1.72525671      16
Co    -0.03971125   -1.79702791    1.81305646      17
Cr     0.00000000    0.00000000    0.00000000      18
          18
Lattice="  24.8920   0.0000   0.0000   0.0000  24.8920   0.0000   0.0000   0.0000  24.8920 " ConfE="      -5938.9349" DelE="          1.0065"
Cr     0.07562911    3.64053236    0.11097938       1
Cr     3.38413756    0.05064667    0.05478235       2
Ni    -0.04962871   -3.63307588    0.06588054       3
Ni    -3.57155056    0.00084250    0.05968191       4
Ni    -0.08181061    0.00230796   -3.53293192       5
Ni    -0.10921332   -0.01308282    3.62142165       6
Co    -0.09543662    1.84424569   -1.83462054       7
Ni    -0.08052260    1.86192001    1.94755932       8
Co     1.71208580   -0.00257720   -1.83755742       9
Cr     1.64306890    0.00856890    1.90494931      10
Co    -1.76460233    1.90415549   -0.01633032      11
Cr     1.61268926   -1.71000707    0.07364573      12
Co    -1.82881382   -1.94342890    0.00644786      13
Cr    -1.56051970   -0.07300870   -1.41670112      14
Co    -1.32249992   -0.03825470    1.25664094      15
Co    -0.01343011   -1.77009983   -1.67693846      16
Co     0.02262066   -1.85541573    1.79809253      17
Cr     0.88959459    1.01317315   -0.00209232      18
          18
Lattice="  24.8920   0.0000   0.0000   0.0000  24.8920   0.0000   0.0000   0.0000  24.8920 " ConfE="      -5940.1928" DelE="         -0.2514"
Cr    -0.06575272    3.59580021    0.09610904       1
Cr     3.44206043   -0.02225795    0.04345239       2
Ni    -0.08956252   -3.59154605    0.07374681       3
Ni    -3.58564410   -0.02239815    0.09357154       4
Ni    -0.07027126    0.00043813   -3.51216176       5
Ni    -0.12857298   -0.01726245    3.61055932       6
Co    -0.07774884    1.79247003   -1.69945071       7
Ni    -0.14570916    1.73518173    1.84613414       8
Co     1.68641738    0.01572197   -1.71343195       9
Cr     1.65921847    0.02404931    1.81390973      10
Co    -1.84961354    1.77727104    0.04119275      11
Cr     1.62749164   -1.76594662    0.08375965      12
Co    -1.83489039   -1.81045018    0.07356358      13
Cr    -1.80661076   -0.03325254   -1.67117132      14
Co    -0.10625795   -0.01381452    0.07507352      15
Co    -0.07218451   -1.79613110   -1.72046098      16
Co    -0.08429540   -1.78224766    1.82363555      17
Cr     1.65915243    1.75556373    0.06311576      18
