          18
Lattice="  24.8920   0.0000   0.0000   0.0000  24.8920   0.0000   0.0000   0.0000  24.8920 " ConfE="      -5949.9017" DelE="          0.0000"
Ni     0.04061118    0.02768863   -3.45175066       1
Ni    -3.50972737    0.01164321    0.05392986       2
Cr    -0.05731523    3.52954106    0.05259061       3
Co     3.56644462   -0.00981742    0.05118284       4
Cr     0.03932662   -3.54543723    0.03974069       5
Co     0.00918775   -0.02768695    3.66629664       6
Ni     1.73698234    1.76765919    0.03768124       7
Cr     1.77160141    0.02664328   -1.70940843       8
Ni     1.78797670   -1.78522995    0.06424793       9
Ni     0.03249316   -1.78108418    1.84280325      10
Ni     0.03876012    1.74866480    1.86502215      11
Co    -1.66230077    0.02320600   -1.66109337      12
Co    -1.68210941    1.77654403    0.05925298      13
Co     0.02991849   -1.80342302   -1.72060862      14
Co     1.83311383   -0.00196313    1.82568416      15
Co    -1.74567568   -0.02576047    1.84732958      16
Cr    -1.72161158   -1.74496548    0.06572106      17
Cr     0.00000000    0.00000000    0.00000000      18
          18
Lattice="  24.8920   0.0000   0.0000   0.0000  24.8920   0.0000   0.0000   0.0000  24.8920 " ConfE="      -5949.2827" DelE="          0.6189"
Ni     0.01798965   -0.00291505   -3.48529537       1
Ni    -3.57779648    0.00019920    0.06593007       2
Cr    -0.01842037    3.53217604    0.06753541       3
Co     3.64051700   -0.02533819    0.08466217       4
Cr     0.03227246   -3.51450646    0.03467300       5
Co     0.01619855   -0.02647329    3.67815911       6
Ni     1.81765833    1.73670567    0.09068258       7
Cr     1.92622812   -0.07512349   -1.72815424       8
Ni     1.76226961   -1.72963472    0.07984049       9
Ni     0.04419248   -1.76584446    1.84960212      10
Ni     0.04061463    1.71276543    1.80848481      11
Co    -1.91298550   -0.07071449   -1.75703099      12
Co    -1.74999906    1.72934102    0.07248394      13
Co    -0.00313365   -1.68818680   -1.66031014      14
Co     1.85472207   -0.00453078    1.83612241      15
Co    -1.72763601   -0.03466978    1.80834717      16
Cr    -1.59873115   -1.57550842    0.07045888      17
Cr    -0.00824511    0.96950098   -1.18804716      18
          18
Lattice="  24.8920   0.0000   0.0000   0.0000  24.8920   0.0000   0.0000   0.0000  24.8920 " ConfE="      -5949.6188" DelE="          0.2829"
Ni     0.02650162    0.00301088   -3.50661076       1
Ni    -3.54602461    0.00909046    0.05942942       2
Cr    -0.02262491    3.55168545    0.07020108       3
Co     3.60710917   -0.02092350    0.06523790       4
Cr     0.03165155   -3.53490428    0.04775735       5
Co     0.00822831   -0.03034406    3.69144113       6
Ni     1.75742565    1.71625150    0.06945505       7
Cr     1.77084862   -0.02613714   -1.68558000       8
Ni     1.76013080   -1.74900202    0.08543379       9
Ni     0.02809026   -1.76004187    1.83939625      10
Ni     0.03567510    1.71589089    1.82579246      11
Co    -1.67763577    0.01163152   -1.64356389      12
Co    -1.70668007    1.75597326    0.08043485      13
Co     0.01761497   -1.72005815   -1.66386583      14
Co     1.85193914   -0.01105688    1.84964080      15
Co    -1.74397847   -0.04269238    1.83112651      16
Cr    -1.69800329   -1.69126392    0.09381051      17
Cr     0.01766624    1.62823268   -1.63247909      18
