          18
Lattice="  24.8920   0.0000   0.0000   0.0000  24.8920   0.0000   0.0000   0.0000  24.8920 " ConfE="      -5935.7724" DelE="          0.0000"
Ni    -0.00201365   -3.43673443    0.03298601       1
Co    -3.44518293    0.00656314    0.04988208       2
Co     0.01592933    0.04784024    3.62762324       3
Cr     0.04805095    0.02353201   -3.52606243       4
Cr     3.50102893    0.01443032   -0.01869510       5
Co     0.07011933    3.57841815    0.03167742       6
Ni     0.03287093   -1.74632967    1.83206928       7
Co    -1.73688927   -0.01213272    1.77432827       8
Cr    -1.72840799   -0.02258145   -1.64616134       9
Co     0.01326816   -1.69682946   -1.75224058      10
Ni     1.79088857    0.02606500    1.82414556      11
Ni     0.04275786    1.78877065    1.82767055      12
Cr    -1.73218457    1.76431683    0.06496995      13
Co     1.85224287   -1.71973368    0.00877594      14
Cr     0.06442769    1.76079821   -1.73879350      15
Co     1.77138293    0.05516560   -1.76196763      16
Co     1.79909314    1.80288496    0.03845151      17
Co     0.00000000    0.00000000    0.00000000      18
          18
Lattice="  24.8920   0.0000   0.0000   0.0000  24.8920   0.0000   0.0000   0.0000  24.8920 " ConfE="      -5935.1753" DelE="          0.5972"
Ni    -0.00730402   -3.40273775    0.02969324       1
Co    -3.42965133    0.02889342    0.06329794       2
Co     0.03246479    0.05540677    3.67553392       3
Cr     0.08686909    0.03260050   -3.61273821       4
Cr     3.53031861   -0.00291222   -0.00328229       5
Co     0.05653341    3.56190021    0.02427563       6
Ni     0.05138671   -1.74418785    1.92673276       7
Co    -1.78082711    0.05220238    1.96089595       8
Cr    -1.74201329    0.06320639   -1.89214128       9
Co     0.09219753   -1.71729320   -1.89707127      10
Ni     1.76903946    0.02188776    1.81321322      11
Ni     0.02610985    1.74517166    1.79557920      12
Cr    -1.70169113    1.65108344    0.04247371      13
Co     1.76696792   -1.66430070    0.00550062      14
Cr     0.08913535    1.66849478   -1.68619000      15
Co     1.74248337    0.05477274   -1.75080832      16
Co     1.77663330    1.76695089    0.03516256      17
Co    -1.00660186   -0.88106404   -0.04019037      18
          18
Lattice="  24.8920   0.0000   0.0000   0.0000  24.8920   0.0000   0.0000   0.0000  24.8920 " ConfE="      -5935.4748" DelE="          0.2977"
Ni     0.03196833   -3.48872156    0.03375171       1
Co    -3.52031420    0.05255743    0.04445093       2
Co     0.02454058    0.04915641    3.63870046       3
Cr     0.05958077    0.03688238   -3.58084755       4
Cr     3.53981045    0.01315527   -0.00998337       5
Co     0.06835227    3.58713887    0.02899017       6
Ni     0.04964295   -1.73197024    1.81938823       7
Co    -1.71705951    0.03651901    1.78800512       8
Cr    -1.65806841    0.00747551   -1.65945866       9
Co     0.04627882   -1.66585585   -1.72693429      10
Ni     1.77563543    0.02453042    1.79669966      11
Ni     0.05194694    1.77519669    1.80886972      12
Cr    -1.68314571    1.68959997    0.06740944      13
Co     1.82398917   -1.69350470    0.01015740      14
Cr     0.09559178    1.72301298   -1.70152171      15
Co     1.73826451    0.07113331   -1.72717301      16
Co     1.78306781    1.78443164    0.03736881      17
Co    -1.69380227   -1.61552458    0.00968677      18
