          18
Lattice="  24.8920   0.0000   0.0000   0.0000  24.8920   0.0000   0.0000   0.0000  24.8920 " ConfE="      -5943.7183" DelE="          0.0000"
Cr    -3.51529078   -0.06484553   -0.02720605       1
Co    -0.02922656   -0.00654587   -3.49209060       2
Ni     3.55093792   -0.01783317    0.05378012       3
Co     0.01860408   -0.03313931    3.55881973       4
Co    -0.04423742    3.53830564   -0.01428890       5
Co     0.03037210   -3.55363614    0.01704810       6
Ni    -1.74662595    1.71068733   -0.01705787       7
Co    -1.76484806   -1.74929707    0.01955077       8
Co    -0.02203660    1.77496943   -1.78636239       9
Co    -0.03326087   -1.76786587   -1.72285899      10
Co    -1.75171053   -0.04004055    1.82485349      11
Co     1.82088053   -0.03986905   -1.78207379      12
Ni     1.76873418   -0.01554918    1.80033495      13
Cr    -0.03845703    1.76325786    1.83903763      14
Cr     0.07227851   -1.83875266    1.79829765      15
Ni     1.75847947    1.77140964    0.02280830      16
Co     1.78768089   -1.78087458   -0.00540749      17
Ni     0.00000000    0.00000000    0.00000000      18
          18
Lattice="  24.8920   0.0000   0.0000   0.0000  24.8920   0.0000   0.0000   0.0000  24.8920 " ConfE="      -5942.6405" DelE="          1.0778"
Cr    -3.44400001   -0.05273104   -0.07810489       1
Co    -0.06818040    0.00223582   -3.45167730       2
Ni     3.51852922   -0.01130927    0.03733726       3
Co     0.00225463   -0.04173541    3.56203555       4
Co    -0.02619355    3.62793078    0.01313500       5
Co     0.03786627   -3.62642643    0.03520633       6
Ni    -1.76709674    1.90686086    0.05409201       7
Co    -1.78893467   -1.92466551    0.06343313       8
Co    -0.00046832    1.96939811   -1.83118828       9
Co     0.02523118   -1.97327644   -1.77319468      10
Co    -1.69658137   -0.02995114    1.71324692      11
Co     1.72076716   -0.02370271   -1.76726990      12
Ni     1.67983569   -0.00072581    1.74381484      13
Cr    -0.06203086    1.76328120    1.81222067      14
Cr     0.05308285   -1.83976001    1.75658482      15
Ni     1.68504772    1.77028411    0.01121617      16
Co     1.70594836   -1.75321930   -0.00824363      17
Ni    -0.87887041   -0.00098144   -0.90987657      18
          18
Lattice="  24.8920   0.0000   0.0000   0.0000  24.8920   0.0000   0.0000   0.0000  24.8920 " ConfE="      -5943.6442" DelE="          0.0741"
Cr    -3.57174489   -0.05047567    0.01710444       1
Co     0.01505985   -0.00960228   -3.55415792       2
Ni     3.54801679   -0.01165742    0.05631606       3
Co     0.01858429   -0.03385283    3.58563440       4
Co    -0.04192070    3.56891931   -0.00829643       5
Co     0.03673794   -3.58911833    0.01989906       6
Ni    -1.71015881    1.72492537    0.02879310       7
Co    -1.71842782   -1.76604975    0.06058270       8
Co     0.01074206    1.77556608   -1.76232549       9
Co     0.02161023   -1.76850366   -1.68133804      10
Co    -1.69979865   -0.03545606    1.77483024      11
Co     1.78536151   -0.04450609   -1.76957889      12
Ni     1.71408491   -0.00904535    1.77235787      13
Cr    -0.04232393    1.73894923    1.83013745      14
Cr     0.07656047   -1.82384780    1.78359121      15
Ni     1.70453749    1.74121801    0.03092165      16
Co     1.74607026   -1.75483581    0.02165573      17
Ni    -1.71248668   -0.01554442   -1.69719827      18
