          18
Lattice="  24.8920   0.0000   0.0000   0.0000  24.8920   0.0000   0.0000   0.0000  24.8920 " ConfE="      -5938.0856" DelE="          0.0000"
Ni     0.01142409   -0.01632754    3.58352999       1
Cr     0.03772838   -3.47751477    0.03469745       2
Cr     0.00176051    3.59366093    0.02455203       3
Cr     0.04949597   -0.03807753   -3.56321175       4
Cr    -3.52538193    0.02590500    0.02016859       5
Cr     3.51282844    0.04240191   -0.02667401       6
Ni    -1.73344960   -1.75607027    0.01882477       7
Ni     1.74653261   -1.75352942    0.05536044       8
Ni    -1.75093668   -0.01121539    1.78239085       9
Ni     1.73726267   -0.02871738    1.80531357      10
Ni     0.02552199    1.81720610    1.77801049      11
Ni     0.02236539    1.76894498   -1.77802910      12
Ni    -1.74518359    1.77696345    0.01758150      13
Ni    -1.74849293   -0.00312180   -1.78525168      14
Ni     1.77428983    0.00672324   -1.78321013      15
Co     0.04766186   -1.79662132   -1.80454402      16
Co     1.78886540    1.82059503    0.00675642      17
Ni     0.00000000    0.00000000    0.00000000      18
          18
Lattice="  24.8920   0.0000   0.0000   0.0000  24.8920   0.0000   0.0000   0.0000  24.8920 " ConfE="      -5937.3794" DelE="          0.7062"
Ni     0.00987258   -0.01989882    3.53925132       1
Cr     0.02402708   -3.36280398    0.06735579       2
Cr    -0.00134060    3.61025997    0.03604397       3
Cr     0.05425895   -0.04564215   -3.58606754       4
Cr    -3.59035047    0.04559041   -0.01657092       5
Cr     3.57286403    0.06690098   -0.05100649       6
Ni    -1.91486562   -1.78819894   -0.01223116       7
Ni     1.90878011   -1.76050643    0.00082347       8
Ni    -1.91294671    0.02667592    1.82589257       9
Ni     1.88803175    0.01019723    1.82835498      10
Ni     0.03172302    1.74448519    1.74661861      11
Ni     0.03228708    1.72599033   -1.73988461      12
Ni    -1.71044625    1.71333530    0.02130299      13
Ni    -1.71133783   -0.02808790   -1.74477067      14
Ni     1.76912640   -0.00307445   -1.76303648      15
Co     0.04597670   -1.78765162   -1.74657506      16
Co     1.79153864    1.79468241    0.01082162      17
Ni    -0.01561702   -0.63508781    0.63098375      18
          18
Lattice="  24.8920   0.0000   0.0000   0.0000  24.8920   0.0000   0.0000   0.0000  24.8920 " ConfE="      -5938.3639" DelE="         -0.2783"
Ni     0.01106185    0.01997868    3.61101796       1
Cr     0.03876555   -3.52841187    0.00092573       2
Cr    -0.00414612    3.61810690    0.02517189       3
Cr     0.05413392   -0.03984428   -3.57931347       4
Cr    -3.55519281    0.03627614    0.00587309       5
Cr     3.55672071    0.05961816   -0.03873991       6
Ni    -1.72505569   -1.73148271    0.00650173       7
Ni     1.76485573   -1.71677785    0.02183955       8
Ni    -1.76091989    0.01526666    1.76587538       9
Ni     1.76791021    0.03478762    1.76835091      10
Ni     0.02744296    1.79499427    1.75729090      11
Ni     0.03203535    1.74864110   -1.75428614      12
Ni    -1.70529839    1.74384291    0.00886423      13
Ni    -1.70470887   -0.00888707   -1.75614939      14
Ni     1.76013085    0.01394581   -1.76125386      15
Co     0.05560717   -1.78894505   -1.76162201      16
Co     1.78229238    1.82674306    0.00025238      17
Ni     0.04484826   -1.72116986    1.77946006      18
