          18
Lattice="  24.8920   0.0000   0.0000   0.0000  24.8920   0.0000   0.0000   0.0000  24.8920 " ConfE="      -5948.1213" DelE="          0.0000"
Ni    -3.48025947    0.01001362   -0.01848014       1
Co     0.03509384    3.52783489   -0.02579544       2
Cr     3.54814919   -0.07835626   -0.02101146       3
Ni     0.02431162   -3.61923934   -0.00633878       4
Co     0.03768237   -0.04253041   -3.54842849       5
Cr     0.02145452   -0.07581649    3.52698652       6
Ni    -1.71405065    0.00264672   -1.77756066       7
Co    -1.77026213   -0.05753144    1.76330406       8
Co     0.05986195    1.74961257   -1.80078728       9
Ni    -0.02719171    1.75218135    1.72321290      10
Cr    -1.75791050   -1.84243458   -0.03236376      11
Co     1.82812463    1.73544594   -0.05379186      12
Co     1.78058732   -1.82222192   -0.02103668      13
Cr     0.03850773   -1.81023496   -1.76753261      14
Co    -0.05401775   -1.82361311    1.75057434      15
Cr     1.77010976   -0.03667370   -1.77364203      16
Ni     1.77790208   -0.04245142    1.74677650      17
Ni     0.00000000    0.00000000    0.00000000      18
          18
Lattice="  24.8920   0.0000   0.0000   0.0000  24.8920   0.0000   0.0000   0.0000  24.8920 " ConfE="      -5946.8255" DelE="          1.2958"
Ni    -3.41596683    0.06372868   -0.02582525       1
Co    -0.01173508    3.47017269   -0.01286287       2
Cr     3.55051745   -0.06277870   -0.00331915       3
Ni     0.00949620   -3.60924563   -0.00154693       4
Co     0.04627394   -0.04378269   -3.60950917       5
Cr     0.03201195   -0.07347448    3.58001884       6
Ni    -1.78506784   -0.03032240   -1.96036600       7
Co    -1.81099671   -0.08907388    1.92869368       8
Co     0.08357895    1.78449059   -1.94472521       9
Ni     0.01523093    1.79622834    1.90482199      10
Cr    -1.70473189   -1.73968717   -0.01997585      11
Co     1.74530144    1.70494545   -0.04648104      12
Co     1.70811430   -1.74876947   -0.02485179      13
Cr     0.01225928   -1.72804593   -1.72033067      14
Co    -0.08168602   -1.76725830    1.72565036      15
Cr     1.70236254    0.00755495   -1.70080917      16
Ni     1.74071521   -0.02096880    1.74945082      17
Ni    -0.79249610    0.76372436   -0.02011230      18
          18
Lattice="  24.8920   0.0000   0.0000   0.0000  24.8920   0.0000   0.0000   0.0000  24.8920 " ConfE="      -5947.9334" DelE="          0.1878"
Ni    -3.51862110   -0.02180861   -0.02788569       1
Co     0.06547759    3.56703359   -0.02401204       2
Cr     3.56997840   -0.08592418   -0.00950672       3
Ni     0.02609052   -3.64593667   -0.00260402       4
Co     0.04339101   -0.05126157   -3.57402646       5
Cr     0.03189566   -0.07686271    3.54953252       6
Ni    -1.66170658   -0.03472543   -1.74847883       7
Co    -1.74107581   -0.07577316    1.73882709       8
Co     0.08595543    1.71576255   -1.79856996       9
Ni     0.02127455    1.71576088    1.73202968      10
Cr    -1.70176309   -1.79253446    0.00144246      11
Co     1.78262690    1.68974393   -0.06465754      12
Co     1.73236398   -1.79063117   -0.03573881      13
Cr     0.05617180   -1.79058162   -1.71813945      14
Co    -0.06196654   -1.79285910    1.70600530      15
Cr     1.73951117   -0.03209717   -1.70799128      16
Ni     1.75184975   -0.04676481    1.71474468      17
Ni    -1.68560561    1.74307958   -0.01393405      18
