          18
Lattice="  24.8920   0.0000   0.0000   0.0000  24.8920   0.0000   0.0000   0.0000  24.8920 " ConfE="      -5946.5410" DelE="          0.0000"
Ni    -0.04828491   -3.54077224    0.10359605       1
Cr    -0.00787058    0.10104204   -3.32406509       2
Cr     3.47677125    0.02350145    0.07250738       3
Ni    -0.06053963   -0.01466498    3.67390505       4
Cr    -0.07453755    3.56034476    0.09959556       5
Co    -3.60700270    0.01987152    0.12266296       6
Ni    -0.05298064   -1.72925029   -1.68892830       7
Ni     1.72285339    1.74696308    0.11699445       8
Cr     1.76698456   -1.69837834    0.00719701       9
Ni     1.71962418   -0.01928863    1.90948124      10
Ni    -0.02635983   -1.78178499    1.86639966      11
Ni    -1.82550409   -1.76921453    0.09554568      12
Ni    -0.06558888    1.75598880    1.87891006      13
Co    -0.04481581    1.74732796   -1.62712001      14
Ni    -1.82860312   -0.02012880    1.86955584      15
Cr    -1.89760506    0.04346562   -1.66099908      16
Cr    -1.82730913    1.76461351    0.10857919      17
Cr     0.00000000    0.00000000    0.00000000      18
          18
Lattice="  24.8920   0.0000   0.0000   0.0000  24.8920   0.0000   0.0000   0.0000  24.8920 " ConfE="      -5945.9785" DelE="          0.5625"
Ni    -0.06779808   -3.57740015    0.11796369       1
Cr    -0.01854897    0.05304933   -3.38690661       2
Cr     3.51363195    0.06875100    0.09117933       3
Ni    -0.05469009   -0.01040592    3.67439237       4
Cr    -0.10291898    3.64775540    0.13719749       5
Co    -3.61042711    0.02448066    0.12391202       6
Ni    -0.13145406   -1.86130210   -1.73338028       7
Ni     1.71590258    1.88257639    0.18002038       8
Cr     1.74959131   -1.83206085    0.06611963       9
Ni     1.69920331   -0.01294191    1.82450503      10
Ni    -0.02897200   -1.77398954    1.85137263      11
Ni    -1.79751347   -1.74809844    0.08840455      12
Ni    -0.06858426    1.75167743    1.86368051      13
Co    -0.06967128    1.83307796   -1.62551951      14
Ni    -1.81170473   -0.01385180    1.85145799      15
Cr    -1.84009324    0.03288256   -1.64899778      16
Cr    -1.71146150    1.68997891    0.07678688      17
Cr     0.87943887   -0.04923444   -0.76306287      18
          18
Lattice="  24.8920   0.0000   0.0000   0.0000  24.8920   0.0000   0.0000   0.0000  24.8920 " ConfE="      -5946.9340" DelE="         -0.3930"
Ni    -0.05251511   -3.54638956    0.11193558       1
Cr    -0.07981757    0.11137991   -3.42942771       2
Cr     3.58828792    0.03556724    0.15894426       3
Ni    -0.06121600   -0.01779337    3.69437831       4
Cr    -0.08679570    3.55575288    0.10041812       5
Co    -3.64190459    0.02617643    0.13870266       6
Ni    -0.06118114   -1.66713037   -1.64358664       7
Ni     1.69860233    1.72773289    0.13944523       8
Cr     1.75285758   -1.68374238    0.03205721       9
Ni     1.70490496   -0.02876266    1.87999770      10
Ni    -0.03011504   -1.77625103    1.87015087      11
Ni    -1.80957361   -1.73054348    0.10253773      12
Ni    -0.07786340    1.73845528    1.87329055      13
Co    -0.08663615    1.69161065   -1.57380088      14
Ni    -1.83646296   -0.01567373    1.88038750      15
Cr    -1.87763742    0.05265378   -1.62705625      16
Cr    -1.80035244    1.71700912    0.10822619      17
Cr     1.78301001    0.02343157   -1.65391663      18
