          18
Lattice="  24.8920   0.0000   0.0000   0.0000  24.8920   0.0000   0.0000   0.0000  24.8920 " ConfE="      -5940.8650" DelE="          0.0000"
Cr     0.00145720    3.50176233    0.00005513       1
Cr     3.55085588    0.01279586    0.01499467       2
Co     0.00720807   -3.58870575   -0.00473983       3
Cr    -3.55784534   -0.05090023    0.01970964       4
Co     0.01133238    0.03530451   -3.57525040       5
Ni     0.00021901    0.00555093    3.52656918       6
Cr    -0.00319611    1.75930088   -1.73829664       7
Co    -0.00559595    1.75897190    1.72683985       8
Cr     1.73884055    0.08876030   -1.67596762       9
Cr     1.82892373    0.16315441    1.68448543      10
Ni    -1.82639028    1.75526692   -0.00583755      11
Ni     1.77794674   -1.81486615    0.01411965      12
Co    -1.78088859   -1.83539941   -0.04595546      13
Ni    -1.79021923   -0.03293619   -1.79025909      14
Cr    -1.79061048   -0.06663162    1.74704853      15
Cr     0.01812494   -1.80309267   -1.81953700      16
Cr    -0.02611329   -1.77964076    1.77458399      17
Co     0.00000000    0.00000000    0.00000000      18
          18
Lattice="  24.8920   0.0000   0.0000   0.0000  24.8920   0.0000   0.0000   0.0000  24.8920 " ConfE="      -5940.3303" DelE="          0.5347"
Cr     0.16353812    3.43948237   -0.03040349       1
Cr     3.50218181    0.10990491    0.03619655       2
Co     0.02997498   -3.57919885    0.00518113       3
Cr    -3.53970807   -0.00137956    0.01269132       4
Co    -0.01629003   -0.02529854   -3.65965328       5
Ni    -0.02857592   -0.02400163    3.62031301       6
Cr    -0.04332333    1.75986839   -1.92497129       7
Co    -0.08075595    1.76466840    1.91803641       8
Cr     1.72411102   -0.06192332   -1.94850265       9
Cr     1.83869471    0.08205671    1.94013815      10
Ni    -1.70380837    1.73841563   -0.00050063      11
Ni     1.77356220   -1.70630479    0.01989489      12
Co    -1.75255920   -1.79837243   -0.03872868      13
Ni    -1.74133786   -0.03594552   -1.78309098      14
Cr    -1.72785230   -0.05680586    1.70895279      15
Cr     0.01572276   -1.76592937   -1.75347144      16
Cr    -0.00268635   -1.68477789    1.71309191      17
Co     0.94727467    0.88818314   -0.01172080      18
          18
Lattice="  24.8920   0.0000   0.0000   0.0000  24.8920   0.0000   0.0000   0.0000  24.8920 " ConfE="      -5941.0329" DelE="         -0.1679"
Cr     0.02969672    3.53130351   -0.01475047       1
Cr     3.59928233   -0.02068919    0.02786362       2
Co     0.01486559   -3.59860362    0.00107442       3
Cr    -3.57335987   -0.04028694    0.02428848       4
Co    -0.00727807    0.01093342   -3.61189770       5
Ni    -0.01983971   -0.01424392    3.58396514       6
Cr    -0.00607298    1.70029124   -1.73297040       7
Co    -0.01085592    1.69926641    1.72696169       8
Cr     1.69180287   -0.02440299   -1.76158378       9
Cr     1.76574647    0.06115730    1.76203446      10
Ni    -1.76603776    1.73146865   -0.00822253      11
Ni     1.76302416   -1.77155401    0.01669620      12
Co    -1.76537141   -1.81389270   -0.03480596      13
Ni    -1.76608288   -0.03869856   -1.76621512      14
Cr    -1.73839790   -0.06373490    1.71452553      15
Cr    -0.00228201   -1.77294935   -1.76282231      16
Cr    -0.02387744   -1.72313873    1.72353143      17
Co     1.76829714    1.69837248   -0.03390093      18
