          18
Lattice="  24.8920   0.0000   0.0000   0.0000  24.8920   0.0000   0.0000   0.0000  24.8920 " ConfE="      -5945.0211" DelE="          0.0000"
Cr     0.03321948    3.40504739    0.12243347       1
Co     0.09703367    0.02928000   -3.41981808       2
Ni     0.02583261   -3.60145481    0.05903431       3
Cr     0.07982943   -0.00913102    3.59260917       4
Co     3.58776853   -0.06497474    0.00997072       5
Co    -3.51605693   -0.06609207    0.08376932       6
Co     1.75537012    1.71734048   -0.03986161       7
Co    -1.73184141    1.71289559    0.05842466       8
Cr     1.78369572   -0.05366395   -1.70573691       9
Co    -1.73316988   -0.05072498   -1.72217187      10
Co     0.03409699    1.75170734    1.83376825      11
Co    -0.00004434   -1.84765470   -1.73083338      12
Ni     0.01167832   -1.79259840    1.80762627      13
Ni     1.79531352   -0.02053912    1.78689892      14
Co    -1.74654452   -0.02992219    1.82609003      15
Ni     1.76991341   -1.81364531    0.02838132      16
Cr    -1.75464101   -1.74013892   -0.00794016      17
Co     0.00000000    0.00000000    0.00000000      18
          18
Lattice="  24.8920   0.0000   0.0000   0.0000  24.8920   0.0000   0.0000   0.0000  24.8920 " ConfE="      -5944.6845" DelE="          0.3366"
Cr     0.04705744    3.32772172    0.10125224       1
Co     0.09206127    0.05138749   -3.35157937       2
Ni     0.03146009   -3.59071766    0.05464507       3
Cr     0.08274288   -0.00391744    3.61967377       4
Co     3.63840615   -0.07141441    0.03428579       5
Co    -3.56926984   -0.06550215    0.08914442       6
Co     1.92647189    1.75824196    0.03692513       7
Co    -1.82761810    1.71278641    0.08798484       8
Cr     1.94256959   -0.06870847   -1.72329462       9
Co    -1.88200226   -0.06912167   -1.75602160      10
Co     0.03550176    1.72613867    1.76980101      11
Co    -0.00496653   -1.81010176   -1.71374417      12
Ni     0.00978974   -1.75025905    1.78279189      13
Ni     1.78120499   -0.00861588    1.77181031      14
Co    -1.73519182   -0.02811515    1.79560425      15
Ni     1.74195789   -1.74913611    0.01935748      16
Cr    -1.68517968   -1.64700924   -0.05701823      17
Co     0.07794999    0.52070295   -0.64693503      18
          18
Lattice="  24.8920   0.0000   0.0000   0.0000  24.8920   0.0000   0.0000   0.0000  24.8920 " ConfE="      -5945.2525" DelE="         -0.2314"
Cr     0.03592670    3.45528902    0.15165515       1
Co     0.06074244   -0.02634434   -3.49182465       2
Ni     0.02653160   -3.61423096    0.05803370       3
Cr     0.07946910   -0.01746270    3.62720285       4
Co     3.60687653   -0.07557365    0.02169983       5
Co    -3.53700557   -0.06620231    0.08316234       6
Co     1.78480265    1.67808097    0.02776693       7
Co    -1.71472214    1.68304570    0.07349338       8
Cr     1.79402034   -0.06900191   -1.69474851       9
Co    -1.70433047   -0.06967710   -1.66816480      10
Co     0.02962952    1.73702609    1.79951689      11
Co    -0.00064001   -1.81022772   -1.70621275      12
Ni    -0.00750155   -1.76429541    1.77639207      13
Ni     1.76111990   -0.03138260    1.78214075      14
Co    -1.73303300   -0.03135777    1.80079434      15
Ni     1.73827810   -1.78267490    0.02804050      16
Cr    -1.73769685   -1.72267796   -0.02478413      17
Co     0.08549435    1.70046163   -1.67371725      18
