          18
Lattice="  24.8920   0.0000   0.0000   0.0000  24.8920   0.0000   0.0000   0.0000  24.8920 " ConfE="      -5937.4906" DelE="          0.0000"
Ni    -0.01814964    0.01345170    3.48870797       1
Co     3.45910590   -0.01133897    0.01670643       2
Co    -0.05541920    0.03449049   -3.57344894       3
Co    -3.59041999    0.00335965   -0.05793241       4
Cr    -0.00927624    3.50128044    0.07371232       5
Cr     0.03278707   -3.51693807    0.02576765       6
Co     0.00122117    1.72481975    1.73666656       7
Ni    -0.02125890   -1.73342336    1.75929922       8
Cr     1.75008270    1.65624064    0.11541300       9
Co     1.75578547   -1.74127048   -0.00132032      10
Co    -1.84743988    0.00046514    1.73807791      11
Cr     1.75045642   -0.01063108   -1.82019498      12
Co    -1.77134228    0.03320520   -1.80508957      13
Co    -1.77693836    1.76677810   -0.02560096      14
Cr    -1.78613250   -1.69830001   -0.04357010      15
Cr     0.03228109    1.72387241   -1.70468084      16
Ni    -0.01625115   -1.78191446   -1.80233039      17
Co     0.00000000    0.00000000    0.00000000      18
          18
Lattice="  24.8920   0.0000   0.0000   0.0000  24.8920   0.0000   0.0000   0.0000  24.8920 " ConfE="      -5936.2890" DelE="          1.2015"
Ni    -0.00015361    0.01936441    3.45736593       1
Co     3.43166918   -0.03139071   -0.00104085       2
Co    -0.02750872    0.03971906   -3.58939559       3
Co    -3.55442461   -0.00893002   -0.08738838       4
Cr    -0.04215991    3.56194283    0.06232391       5
Cr     0.01730472   -3.58949366   -0.00337204       6
Co    -0.10591322    1.87653879    1.75520533       7
Ni     0.00748808   -1.84538963    1.82021605       8
Cr     1.85685873    1.99136886    0.07107133       9
Co     1.76092904   -1.93899876   -0.04273002      10
Co    -1.81805964    0.05383508    1.80897651      11
Cr     1.70961225   -0.05002011   -1.70686717      12
Co    -1.78806509    0.07622736   -1.93224665      13
Co    -1.75587223    1.71154104   -0.03571231      14
Cr    -1.15721325   -0.98349681   -0.03818566      15
Cr     0.03961070    1.57402451   -1.50917788      16
Ni     0.02598401   -1.80468115   -1.85904273      17
Co     1.05113990    0.10228230    0.85453429      18
          18
Lattice="  24.8920   0.0000   0.0000   0.0000  24.8920   0.0000   0.0000   0.0000  24.8920 " ConfE="      -5937.5709" DelE="         -0.0803"
Ni    -0.05022252    0.00198551    3.49619706       1
Co     3.48383849   -0.01416893   -0.04044583       2
Co    -0.06557198    0.02550921   -3.53885164       3
Co    -3.55434178   -0.03626862   -0.08113196       4
Cr    -0.02127821    3.55276147    0.07064954       5
Cr     0.00321062   -3.57839036    0.01281836       6
Co    -0.02482521    1.74081598    1.72703842       7
Ni    -0.08327165   -1.78732992    1.71565610       8
Cr     1.75314756    1.76158492    0.00730366       9
Co     1.77985852   -1.79645712   -0.03484248      10
Co    -1.81392153   -0.01409623    1.68460907      11
Cr     1.72746043   -0.02532366   -1.78853820      12
Co    -1.77358285   -0.01929613   -1.75426622      13
Co    -1.77049767    1.79744813   -0.03686449      14
Cr    -0.06554728   -0.07374044   -0.00273334      15
Cr    -0.00813112    1.72627504   -1.72924213      16
Ni    -0.05841789   -1.81161485   -1.75014145      17
Co     1.74601891   -0.02933120    1.70853356      18
