          18
Lattice="  24.8920   0.0000   0.0000   0.0000  24.8920   0.0000   0.0000   0.0000  24.8920 " ConfE="      -5931.1971" DelE="          0.0000"
Co    -3.41718447    0.03030712    0.04390547       1
Co     0.08046538   -3.50119731    0.01318888       2
Cr     3.59993894   -0.00379462    0.03281467       3
Co     0.12346363    3.63916267   -0.01179665       4
Cr     0.08099208    0.01194455   -3.56913783       5
Cr     0.06705160   -0.00134325    3.53638275       6
Ni    -1.71820054    0.01584496   -1.74885009       7
Cr    -1.74148905    0.00868582    1.74681159       8
Cr    -0.03475465   -1.82600297   -1.71878927       9
Cr    -0.04328451   -1.79604100    1.71472101      10
Cr    -1.72417414    1.91128935    0.01683478      11
Co     1.85438988   -1.74220254    0.02323175      12
Cr     1.83511772    1.76171788   -0.07050941      13
Cr     0.01629013    1.85539004   -1.76892336      14
Ni     0.04978035    1.81706862    1.76578323      15
Cr     1.80482265   -0.11307389   -1.80737921      16
Ni     1.82599201    0.01335852    1.77557821      17
Ni     0.00000000    0.00000000    0.00000000      18
          18
Lattice="  24.8920   0.0000   0.0000   0.0000  24.8920   0.0000   0.0000   0.0000  24.8920 " ConfE="      -5930.7760" DelE="          0.4211"
Co    -3.34718952    0.02371073    0.02823039       1
Co     0.08346891   -3.49968581    0.02935539       2
Cr     3.60323719   -0.01280929    0.04499716       3
Co     0.12823140    3.64748508   -0.00662490       4
Cr     0.09038739    0.00788838   -3.64785820       5
Cr     0.11721623    0.01529606    3.59177526       6
Ni    -1.72828020    0.06729907   -1.92288313       7
Cr    -1.76804741    0.06951358    1.97554523       8
Cr    -0.02490361   -1.84614340   -1.87076993       9
Cr     0.04793201   -1.84099391    1.95160078      10
Cr    -1.63026896    1.83897762    0.01480700      11
Co     1.77559112   -1.70103722    0.03776733      12
Cr     1.69425981    1.61580794   -0.06332425      13
Cr     0.01587029    1.82358264   -1.76369949      14
Ni     0.05496256    1.80386696    1.79696081      15
Cr     1.70352308   -0.14845289   -1.76851894      16
Ni     1.83297585    0.00453455    1.81112934      17
Ni    -0.61178946   -0.60365526    0.03506030      18
          18
Lattice="  24.8920   0.0000   0.0000   0.0000  24.8920   0.0000   0.0000   0.0000  24.8920 " ConfE="      -5931.3255" DelE="         -0.1284"
Co    -3.46353595    0.04931996    0.03462026       1
Co     0.10452274   -3.54673446    0.01341475       2
Cr     3.61382239   -0.00158376    0.04476856       3
Co     0.12972330    3.65518222   -0.00805840       4
Cr     0.09373888    0.01605424   -3.61665649       5
Cr     0.08083636    0.01270615    3.57985877       6
Ni    -1.65161347    0.04499723   -1.73628073       7
Cr    -1.65767958    0.03775278    1.72488823       8
Cr     0.08372544   -1.75881664   -1.77964945       9
Cr     0.03852533   -1.74252936    1.76842581      10
Cr    -1.63916100    1.83354513    0.02176698      11
Co     1.77287497   -1.68187720    0.01002025      12
Cr     1.76599100    1.70199450   -0.06191804      13
Cr     0.05151728    1.82477405   -1.75479845      14
Ni     0.06873481    1.80046443    1.76338513      15
Cr     1.78956157   -0.04844339   -1.78004538      16
Ni     1.81473820    0.02337061    1.77522527      17
Ni    -1.66683649   -1.72152681   -0.02248406      18
