          18
Lattice="  24.8920   0.0000   0.0000   0.0000  24.8920   0.0000   0.0000   0.0000  24.8920 " ConfE="      -5942.8703" DelE="          0.0000"
Cr    -0.04196534   -0.00087399   -3.41454534       1
Co     3.41806995    0.05920446   -0.05641994       2
Ni    -0.09471131    0.03559580    3.61853124       3
Co    -3.71292175   -0.01480831    0.07050205       4
Co    -0.11562864   -3.50870237    0.08827249       5
Ni    -0.09629275    3.54819327    0.07349896       6
Co    -0.07633626   -1.73073811   -1.70515373       7
Co    -0.04773618    1.77802964   -1.72753462       8
Cr     1.68218162   -1.72079455    0.03977735       9
Cr     1.65067025    1.74651564   -0.03655494      10
Ni    -1.89525122    0.01145154   -1.68309016      11
Cr     1.75780960    0.00730683    1.79640465      12
Ni    -1.89430370    0.01207263    1.80046064      13
Cr    -1.89280203   -1.79849553    0.03007116      14
Ni    -1.87595785    1.78573984    0.06345605      15
Ni    -0.11571414   -1.73265873    1.81278119      16
Ni    -0.08532044    1.76904445    1.83240631      17
Co     0.00000000    0.00000000    0.00000000      18
          18
Lattice="  24.8920   0.0000   0.0000   0.0000  24.8920   0.0000   0.0000   0.0000  24.8920 " ConfE="      -5942.6501" DelE="          0.2202"
Cr     0.03799282    0.01869919   -3.34114213       1
Co     3.33902034    0.05108240   -0.04536122       2
Ni    -0.09050555    0.03576357    3.60979111       3
Co    -3.70704163   -0.01616872    0.06156776       4
Co    -0.12089202   -3.54837973    0.09237608       5
Ni    -0.11079534    3.58935547    0.07558375       6
Co    -0.10946812   -1.82952508   -1.71737172       7
Co    -0.05962772    1.86625042   -1.73106941       8
Cr     1.74900566   -1.92784579    0.10583412       9
Cr     1.69421268    1.92046674    0.04589605      10
Ni    -1.82113907    0.01192090   -1.64907902      11
Cr     1.75719731    0.00044732    1.79481997      12
Ni    -1.87254524    0.01141344    1.76419125      13
Cr    -1.88044828   -1.80013922    0.01529476      14
Ni    -1.85439456    1.79136973    0.05615643      15
Ni    -0.10042317   -1.69851051    1.74985062      16
Ni    -0.06943243    1.75098518    1.79180026      17
Co     0.62205975   -0.02520482   -0.41700241      18
          18
Lattice="  24.8920   0.0000   0.0000   0.0000  24.8920   0.0000   0.0000   0.0000  24.8920 " ConfE="      -5943.2193" DelE="         -0.3490"
Cr    -0.09151702    0.00671008   -3.47235686       1
Co     3.49531622    0.05680555    0.00690518       2
Ni    -0.09971340    0.03868269    3.62511702       3
Co    -3.72205691   -0.01563838    0.06686151       4
Co    -0.12277860   -3.53272557    0.09893630       5
Ni    -0.10731267    3.57511846    0.07927723       6
Co    -0.09943407   -1.72414105   -1.64240640       7
Co    -0.07869097    1.79250715   -1.69747407       8
Cr     1.65659085   -1.70455655    0.04501764       9
Cr     1.61038113    1.74558698   -0.00116533      10
Ni    -1.84594698    0.01618098   -1.65232725      11
Cr     1.72296357    0.01304890    1.73202004      12
Ni    -1.88955767    0.00858406    1.77435283      13
Cr    -1.89606984   -1.80417717    0.01664292      14
Ni    -1.86846221    1.78412816    0.06319589      15
Ni    -0.11745288   -1.69342333    1.76193328      16
Ni    -0.09279430    1.75340211    1.81014915      17
Co     1.65801111    0.02606198   -1.65724260      18
