          18
Lattice="  24.8920   0.0000   0.0000   0.0000  24.8920   0.0000   0.0000   0.0000  24.8920 " ConfE="      -5923.3653" DelE="          0.0000"
Ni    -3.49060779   -0.00537799    0.01435387       1
Cr     0.01922983   -0.03935421   -3.42896181       2
Co     3.64314977   -0.00319045    0.05997344       3
Ni     0.04374527   -0.00783886    3.59316375       4
Ni     0.04429117   -3.53876261    0.02261708       5
Cr     0.03994134    3.51672847    0.01347986       6
Cr    -1.68726982   -1.74150322   -0.06920374       7
Co    -1.72466209    1.75268168   -0.00993131       8
Co    -0.00113275   -1.70773564   -1.72731806       9
Ni     0.01392152    1.71770856   -1.74838994      10
Ni    -1.74169009   -0.02201974    1.80800673      11
Cr     1.91406043    0.01496870   -1.65624102      12
Co     1.81571560    0.02490206    1.79979439      13
Ni     0.02844062   -1.76047315    1.78654049      14
Cr     0.05644205    1.74242883    1.73945474      15
Co     1.82002198   -1.71705371    0.00422046      16
Co     1.84907776    1.73860255    0.00419896      17
Co     0.00000000    0.00000000    0.00000000      18
          18
Lattice="  24.8920   0.0000   0.0000   0.0000  24.8920   0.0000   0.0000   0.0000  24.8920 " ConfE="      -5922.7206" DelE="          0.6447"
Ni    -3.45934020    0.00931392   -0.00272212       1
Cr     0.01044250   -0.03591613   -3.35680295       2
Co     3.64647368    0.00160779    0.05097816       3
Ni     0.04049305   -0.00771754    3.58094292       4
Ni     0.06520060   -3.58217011    0.02063487       5
Cr     0.08065141    3.59985447    0.03844670       6
Cr    -1.74773033   -1.91843107   -0.00462923       7
Co    -1.72788630    1.92855553    0.04258312       8
Co     0.10577131   -1.88629698   -1.77173485       9
Ni     0.06173951    1.85797184   -1.74726866      10
Ni    -1.70720920   -0.00578990    1.73189188      11
Cr     1.79779706   -0.00106821   -1.61200025      12
Co     1.78118711    0.03918666    1.76211220      13
Ni     0.02405786   -1.72909956    1.72122266      14
Cr     0.07648154    1.71955017    1.68530301      15
Co     1.80493085   -1.69753028   -0.00972929      16
Co     1.82899171    1.73127448   -0.00246840      17
Co    -0.84656802   -0.07499737   -0.77869844      18
          18
Lattice="  24.8920   0.0000   0.0000   0.0000  24.8920   0.0000   0.0000   0.0000  24.8920 " ConfE="      -5923.4131" DelE="         -0.0478"
Ni    -3.54102592   -0.00745664    0.04639171       1
Cr     0.05335853   -0.04155652   -3.47938803       2
Co     3.66350470    0.00598354    0.06414292       3
Ni     0.04191871   -0.00601685    3.59888041       4
Ni     0.04907123   -3.56111597    0.02732030       5
Cr     0.05926162    3.55171451    0.02509454       6
Cr    -1.68851366   -1.76867071   -0.06390735       7
Co    -1.68144123    1.75342751    0.03087202       8
Co     0.04578664   -1.70862645   -1.66933613       9
Ni     0.06958444    1.68456558   -1.69339601      10
Ni    -1.71151157   -0.01742716    1.75095164      11
Cr     1.88537020   -0.00037712   -1.63720158      12
Co     1.79775142    0.04496609    1.79255306      13
Ni     0.02684732   -1.71718885    1.73504040      14
Cr     0.08362314    1.73605973    1.72957348      15
Co     1.80380263   -1.66883661    0.00240378      16
Co     1.83660599    1.71699764    0.02025061      17
Co    -1.71517054   -0.01163195   -1.70675898      18
