          18
Lattice="  24.8920   0.0000   0.0000   0.0000  24.8920   0.0000   0.0000   0.0000  24.8920 " ConfE="      -5935.0691" DelE="          0.0000"
Ni     3.51530155   -0.01072473   -0.01954898       1
Ni    -0.00144496    0.00317574    3.47174197       2
Co    -0.00752133    0.01342523   -3.59762513       3
Cr    -3.56089635   -0.08267873   -0.03689041       4
Co    -0.03884412    3.55033859   -0.03968714       5
Cr    -0.03167057   -3.56539788   -0.07925910       6
Ni     1.77058794   -1.75364116    0.01295773       7
Ni     0.01629676   -1.78303866    1.73535437       8
Co     1.73432496    1.80391716   -0.03336988       9
Co    -0.06499282    1.79164076    1.74278786      10
Ni     1.75736413   -0.00848835   -1.81558552      11
Ni    -1.83085346    1.78226547   -0.01704059      12
Co    -1.85084184    0.00700074    1.71445487      13
Co    -1.79060351   -0.01498464   -1.80791627      14
Cr    -0.01743891    1.76306702   -1.74495548      15
Cr    -0.05422778   -1.77873111   -1.80781452      16
Co    -1.80883764   -1.79860946   -0.04764138      17
Ni     0.00000000    0.00000000    0.00000000      18
          18
Lattice="  24.8920   0.0000   0.0000   0.0000  24.8920   0.0000   0.0000   0.0000  24.8920 " ConfE="      -5934.2372" DelE="          0.8319"
Ni     3.49846403   -0.03327990   -0.01462512       1
Ni     0.00873290   -0.00675183    3.42770820       2
Co     0.00314597    0.01378106   -3.60247072       3
Cr    -3.55520134   -0.06713310   -0.01566049       4
Co    -0.05782327    3.61563383   -0.04921268       5
Cr    -0.03254768   -3.69231273   -0.10829406       6
Ni     1.77059838   -1.92984332   -0.05562597       7
Ni    -0.02746445   -1.90724254    1.72860390       8
Co     1.74732419    1.98360764   -0.11670167       9
Co    -0.12699552    1.91179595    1.77088726      10
Ni     1.69738893   -0.03208882   -1.70941995      11
Ni    -1.79719877    1.77959608   -0.01376211      12
Co    -1.79366196    0.00054394    1.67993853      13
Co    -1.72506140   -0.00853645   -1.76388316      14
Cr    -0.01395094    1.70734951   -1.67821421      15
Cr    -0.08142394   -1.75445221   -1.74054477      16
Co    -1.74620339   -1.79469282   -0.05376172      17
Ni     1.09150153    0.03481061    0.98993654      18
          18
Lattice="  24.8920   0.0000   0.0000   0.0000  24.8920   0.0000   0.0000   0.0000  24.8920 " ConfE="      -5934.7211" DelE="          0.3480"
Ni     3.53792026   -0.02181339   -0.04198572       1
Ni    -0.04275158    0.00497527    3.51931340       2
Co    -0.01005867    0.01534985   -3.62747540       3
Cr    -3.57943429   -0.06894390   -0.02084159       4
Co    -0.04782661    3.56566831   -0.03824370       5
Cr    -0.04077323   -3.61385437   -0.09073761       6
Ni     1.70415845   -1.75537742   -0.03132715       7
Ni    -0.03081344   -1.77618581    1.70177137       8
Co     1.68420336    1.78016962   -0.06095853       9
Co    -0.08330019    1.77175320    1.72104318      10
Ni     1.71633552   -0.01804218   -1.78162556      11
Ni    -1.81890841    1.76950365   -0.01658188      12
Co    -1.81416067    0.00489758    1.69151797      13
Co    -1.74631708   -0.00800357   -1.77777960      14
Cr    -0.02963284    1.68037344   -1.69425319      15
Cr    -0.11056459   -1.73382447   -1.78980429      16
Co    -1.78666391   -1.78374828   -0.06487826      17
Ni     1.69003565    0.00444523    1.71681323      18
