          18
Lattice="  24.8920   0.0000   0.0000   0.0000  24.8920   0.0000   0.0000   0.0000  24.8920 " ConfE="      -5940.8074" DelE="          0.0000"
Ni    -0.00495918    0.00041758    3.44552077       1
Cr    -0.00504511   -3.50034237   -0.04429602       2
Cr    -0.00799515    3.60088165   -0.06578743       3
Co     0.01048201   -0.00485752   -3.64306800       4
Cr     3.53287462    0.08886622   -0.06749802       5
Co    -3.58514019    0.03859101   -0.04902592       6
Ni    -1.79718451   -1.72999264   -0.04117675       7
Ni     1.74978971   -1.75483915   -0.06072734       8
Cr     1.76932199    0.03551703    1.69071265       9
Cr    -1.78947647    0.02810883    1.69715210      10
Ni    -0.01281626    1.79382858   -1.83758164      11
Ni     1.75236748    1.82431399   -0.09068549      12
Ni    -1.78535358    0.01237450   -1.85307034      13
Cr    -0.04194661   -1.76826541   -1.84062821      14
Cr    -0.02681023    1.82938942    1.68378425      15
Cr    -1.83467381    1.75918812   -0.07410075      16
Cr     1.74534865   -0.00876682   -1.83899338      17
Co     0.00000000    0.00000000    0.00000000      18
          18
Lattice="  24.8920   0.0000   0.0000   0.0000  24.8920   0.0000   0.0000   0.0000  24.8920 " ConfE="      -5939.6619" DelE="          1.1455"
Ni     0.02274968    0.04325597    3.47385965       1
Cr    -0.00813804   -3.51277953   -0.00319084       2
Cr     0.00126411    3.66346781   -0.04387203       3
Co     0.05346290   -0.01505308   -3.60478300       4
Cr     3.56544476    0.11025679   -0.16198532       5
Co    -3.60782412    0.04663057   -0.07614155       6
Ni    -1.87175809   -1.73333322   -0.09193948       7
Ni     1.90892616   -1.88595006   -0.06037737       8
Cr     1.94728238    0.05844404    1.66973725       9
Cr    -1.90831516    0.04700192    1.72802764      10
Ni    -0.02269972    1.90144835   -1.85845299      11
Ni     1.78016471    1.87479945   -0.10279204      12
Ni    -1.71315128   -0.00835118   -1.84128674      13
Cr    -0.07608064   -1.88755237   -1.82270330      14
Cr     0.03835720    1.64274457    1.54711613      15
Cr    -1.69515228    1.59611068   -0.07158074      16
Cr     0.95834700   -0.07445722   -1.13943719      17
Co     0.02209829   -1.13512445    1.24972691      18
          18
Lattice="  24.8920   0.0000   0.0000   0.0000  24.8920   0.0000   0.0000   0.0000  24.8920 " ConfE="      -5940.5344" DelE="          0.2731"
Ni    -0.01366230    0.04264566    3.51072110       1
Cr    -0.01357196   -3.53309056   -0.07496901       2
Cr    -0.00278606    3.62705132   -0.06931584       3
Co     0.00987795   -0.00683855   -3.65333838       4
Cr     3.56967816    0.09843995   -0.07078638       5
Co    -3.60556324    0.04515439   -0.05627061       6
Ni    -1.81300634   -1.71179996   -0.07281060       7
Ni     1.75015225   -1.71891187   -0.09314635       8
Cr     1.72881578    0.05961558    1.66832656       9
Cr    -1.76833825    0.05869918    1.65658331      10
Ni    -0.01459477    1.77876394   -1.81669838      11
Ni     1.73057657    1.78867340   -0.09370014      12
Ni    -1.76703261    0.01550068   -1.83624086      13
Cr    -0.03414702   -1.73894743   -1.80589392      14
Cr    -0.03388991    1.76692834    1.63519047      15
Cr    -1.82035599    1.75239927   -0.08141285      16
Cr     1.72432509   -0.01265764   -1.83886072      17
Co    -0.02633349   -1.66350557    1.63069631      18
