          18
Lattice="  24.8920   0.0000   0.0000   0.0000  24.8920   0.0000   0.0000   0.0000  24.8920 " ConfE="      -5938.8115" DelE="          0.0000"
Ni     0.00919090    0.00699071   -3.43707591       1
Co    -0.05706238    3.52329008   -0.00532197       2
Ni     0.00209638    0.00053994    3.61233021       3
Ni     0.01298841   -3.57230894    0.06463996       4
Co     3.53242594   -0.01957904    0.05710117       5
Ni    -3.53537579   -0.05981981    0.03055452       6
Cr     1.78603299   -0.07073440   -1.65005607       7
Co    -1.77896106   -0.07272550   -1.72391062       8
Ni     1.73760491    1.73836786    0.02767308       9
Ni    -1.77494716    1.74144673    0.01236681      10
Ni     0.00003774   -1.81601400   -1.71467614      11
Ni    -0.01565558    1.76381342    1.85799019      12
Ni     0.02185974   -1.78959818    1.81930922      13
Cr     1.80411175   -1.75532826    0.05982281      14
Co    -1.76868950   -1.82696672    0.07851615      15
Co     1.77378937   -0.00707442    1.82321367      16
Co    -1.78896311   -0.05356599    1.87040535      17
Ni     0.00000000    0.00000000    0.00000000      18
          18
Lattice="  24.8920   0.0000   0.0000   0.0000  24.8920   0.0000   0.0000   0.0000  24.8920 " ConfE="      -5933.8202" DelE="          4.9913"
Ni     0.01842279    0.00785342   -3.44918485       1
Co    -0.09525482    3.53782469   -0.12834717       2
Ni    -0.01696108   -0.02169474    3.65238491       3
Ni     0.00690543   -3.56493017    0.07929558       4
Co     3.58200241   -0.01247570    0.05655186       5
Ni    -3.55791205   -0.06241307    0.03530047       6
Cr     1.80805535   -0.17269492   -1.73037806       7
Co    -1.70172686   -0.03429581   -1.65570774       8
Ni     1.54773221    1.45394329   -0.18537319       9
Ni    -1.81581783    1.76155920   -0.01832738      10
Ni     0.01197298   -1.77421563   -1.66812946      11
Ni     0.80666288    3.10397122    2.14887335      12
Ni     0.00113456   -1.74017273    1.80854113      13
Cr     1.75189527   -1.69405849    0.09191979      14
Co    -1.76371212   -1.79092991    0.09537392      15
Co     1.86581200   -0.08146937    1.83108329      16
Co    -1.96584711   -0.17245658    1.96361217      17
Ni    -0.12796930    1.10494192    1.47236906      18
          18
Lattice="  24.8920   0.0000   0.0000   0.0000  24.8920   0.0000   0.0000   0.0000  24.8920 " ConfE="      -5938.6586" DelE="          0.1529"
Ni     0.01031248    0.01323909   -3.43635479       1
Co    -0.05344163    3.50840271   -0.01579946       2
Ni    -0.00181336   -0.00049255    3.61739847       3
Ni     0.01566269   -3.56770348    0.06638880       4
Co     3.53509300   -0.02115753    0.05665536       5
Ni    -3.53247005   -0.05929338    0.02874953       6
Cr     1.77116265   -0.01069762   -1.62204733       7
Co    -1.77033109   -0.06106507   -1.72198083       8
Ni     0.00083378    0.01199578    0.00812097       9
Ni    -1.77355318    1.74364842    0.01569917      10
Ni     0.00259292   -1.80811387   -1.70924583      11
Ni     1.72679508    3.51455734    1.80645465      12
Ni     0.02080136   -1.78878274    1.82175283      13
Cr     1.80513133   -1.73468565    0.06353749      14
Co    -1.76911381   -1.82605735    0.07889413      15
Co     1.77384439    0.00075162    1.82342183      16
Co    -1.78511442   -0.04823829    1.86706995      17
Ni    -0.01875000    1.76155319    1.86420380      18
