          18
Lattice="  24.8920   0.0000   0.0000   0.0000  24.8920   0.0000   0.0000   0.0000  24.8920 " ConfE="      -5940.9827" DelE="          0.0000"
Cr     3.26996989   -0.00398846    0.11571444       1
Co    -0.12956680   -0.01243311    3.64708359       2
Cr    -0.16712823   -0.05270583   -3.44562517       3
Cr    -3.69903301   -0.07787121    0.13455608       4
Co    -0.14569740    3.50010265    0.06616649       5
Cr    -0.09300940   -3.64264643    0.05326325       6
Co     1.62305701    1.75632922    0.05017802       7
Cr    -0.05150955    1.61657558    1.81121197       8
Cr     1.67580427   -1.80802329    0.07390000       9
Cr    -0.01983825   -1.55571991    1.84439746      10
Ni    -1.90877236    1.70789583    0.12335782      11
Ni    -0.14017326   -1.83877637   -1.71242730      12
Ni    -1.87833275   -1.81205271    0.09536812      13
Co     1.65471102   -0.01085914   -1.80400439      14
Cr    -1.95906396   -0.06785110    1.93730222      15
Co    -1.95809339   -0.04831757   -1.68344546      16
Co    -0.15440609    1.74407354   -1.72580707      17
Cr     0.00000000    0.00000000    0.00000000      18
          18
Lattice="  24.8920   0.0000   0.0000   0.0000  24.8920   0.0000   0.0000   0.0000  24.8920 " ConfE="      -5940.3151" DelE="          0.6676"
Cr     3.32335052   -0.02691327    0.07523093       1
Co    -0.12687313   -0.00966012    3.47717704       2
Cr    -0.13676818   -0.06262447   -3.43412144       3
Cr    -3.67143889   -0.07189240    0.14935230       4
Co    -0.16579381    3.57525793    0.04551953       5
Cr    -0.13641416   -3.69682623    0.02622623       6
Co     1.62253486    1.91957688   -0.04915994       7
Cr    -0.09595596    1.94074997    1.84975151       8
Cr     1.69743883   -1.92798878    0.00692120       9
Cr    -0.13793460   -1.96685839    1.88670586      10
Ni    -1.83153385    1.66823537    0.15380836      11
Ni    -0.14748471   -1.82951584   -1.66543107      12
Ni    -1.87171680   -1.80823622    0.10144226      13
Co     1.59678793   -0.02405770   -1.67873624      14
Cr    -1.92370642   -0.08770475    1.91420532      15
Co    -1.92472662   -0.04774298   -1.65167898      16
Co    -0.15282804    1.71123266   -1.67390762      17
Cr     0.61521652    0.05203980    0.80106571      18
          18
Lattice="  24.8920   0.0000   0.0000   0.0000  24.8920   0.0000   0.0000   0.0000  24.8920 " ConfE="      -5940.7531" DelE="          0.2296"
Cr     3.42174311   -0.02367101    0.03784108       1
Co    -0.14721446   -0.01602749    3.66379625       2
Cr    -0.15298966   -0.04551214   -3.45635008       3
Cr    -3.73032382   -0.07745457    0.11779951       4
Co    -0.15553984    3.52125202    0.06931388       5
Cr    -0.11245556   -3.62754107    0.04402587       6
Co     1.59548846    1.71245655    0.06224111       7
Cr    -0.17419319    1.61443402    1.73892513       8
Cr     1.62051693   -1.76228840    0.01581707       9
Cr    -0.14559225   -1.63393366    1.76456042      10
Ni    -1.94259490    1.69654903    0.09139956      11
Ni    -0.16669380   -1.79201597   -1.68642766      12
Ni    -1.91880793   -1.78687822    0.05903745      13
Co     1.61216868   -0.00973721   -1.70928407      14
Cr    -1.94992387   -0.05449290    1.90101138      15
Co    -1.98157787   -0.03073381   -1.71082080      16
Co    -0.17120305    1.70009073   -1.67305350      17
Cr     1.62574209   -0.00506210    1.75560335      18
