          18
Lattice="  24.8920   0.0000   0.0000   0.0000  24.8920   0.0000   0.0000   0.0000  24.8920 " ConfE="      -5930.0990" DelE="          0.0000"
Cr     0.00830144   -0.00885178    3.14073123       1
Cr    -0.01155731    3.19209806   -0.00663605       2
Cr     0.02230762   -0.09721823   -3.77497940       3
Ni     0.00741760   -3.68743007   -0.18452647       4
Ni    -3.51879067   -0.11963983   -0.19729258       5
Cr     3.57238005   -0.14864394   -0.21046665       6
Co    -1.70159146   -0.07534515    1.59301751       7
Co     1.76549518   -0.10234629    1.58891004       8
Co    -1.73216153    1.66455763   -0.15032046       9
Ni     1.81525532    1.63515696   -0.15944971      10
Co    -0.00202355   -1.91246350    1.57858888      11
Ni     0.02390034    1.64903633   -1.96418151      12
Cr     0.03207159   -1.88996196   -1.96305321      13
Cr    -1.70255003   -1.87625060   -0.14690679      14
Ni     1.76033570   -1.87904049   -0.16500315      15
Ni    -1.72150911   -0.12475083   -1.94094138      16
Co     1.77401445   -0.13522823   -1.94673658      17
Cr     0.00000000    0.00000000    0.00000000      18
          18
Lattice="  24.8920   0.0000   0.0000   0.0000  24.8920   0.0000   0.0000   0.0000  24.8920 " ConfE="      -5929.6057" DelE="          0.4933"
Cr     0.01545721   -0.03784602    3.23484921       1
Cr     0.02524796    3.35071628   -0.12357680       2
Cr     0.02191222   -0.09606867   -3.73643267       3
Ni     0.01154269   -3.68383284   -0.16871545       4
Ni    -3.56834055   -0.12798075   -0.21145668       5
Cr     3.63341161   -0.16198241   -0.24137621       6
Co    -1.87990603   -0.12926687    1.61523990       7
Co     1.85710762   -0.10068871    1.57434202       8
Co    -1.84938477    1.69081948   -0.21445126       9
Ni     1.88731177    1.65535753   -0.20300937      10
Co    -0.00528788   -1.81050984    1.54786612      11
Ni     0.02789765    1.63175646   -1.89928618      12
Cr     0.03730475   -1.83555124   -1.89926144      13
Cr    -1.64021927   -1.79414244   -0.11578122      14
Ni     1.76335969   -1.85071641   -0.16447435      15
Ni    -1.71140635   -0.11879340   -1.89969318      16
Co     1.78621793   -0.12904451   -1.93607916      17
Cr    -0.06928770    0.69013355    0.67372654      18
          18
Lattice="  24.8920   0.0000   0.0000   0.0000  24.8920   0.0000   0.0000   0.0000  24.8920 " ConfE="      -5930.3760" DelE="         -0.2770"
Cr     0.00190228   -0.09749931    3.29818326       1
Cr     0.00178193    3.42297677   -0.20173344       2
Cr     0.02527406   -0.10453687   -3.76403405       3
Ni     0.01302163   -3.69841360   -0.18367000       4
Ni    -3.53255071   -0.12504538   -0.20712997       5
Cr     3.57555262   -0.13244428   -0.21077737       6
Co    -1.68263806   -0.08346272    1.56953890       7
Co     1.74115646   -0.10820802    1.56125825       8
Co    -1.70628948    1.65860307   -0.17217266       9
Ni     1.77668912    1.62289272   -0.18906580      10
Co    -0.01737230   -1.84139285    1.53199823      11
Ni     0.02686770    1.62650397   -1.93821543      12
Cr     0.03477946   -1.86700677   -1.93727049      13
Cr    -1.66271638   -1.85790861   -0.12918634      14
Ni     1.75798579   -1.86809101   -0.18248509      15
Ni    -1.70798860   -0.13966975   -1.92642965      16
Co     1.79696381   -0.14089919   -1.96953505      17
Cr    -0.01044332    1.61435160    1.53774317      18
