          18
Lattice="  24.8920   0.0000   0.0000   0.0000  24.8920   0.0000   0.0000   0.0000  24.8920 " ConfE="      -5937.8101" DelE="          0.0000"
Cr    -3.44725921   -0.01998785   -0.05546309       1
Co    -0.01033006   -3.50618455   -0.03538812       2
Ni     3.54509561    0.03805634   -0.00043769       3
Co     0.03386324    3.61434206    0.04802341       4
Cr     0.01309038    0.03398391    3.55321829       5
Co    -0.02038658    0.05686843   -3.61576215       6
Cr    -1.73298797    0.00085806    1.74038675       7
Co    -1.79104025    0.02637260   -1.76418922       8
Co    -0.02082442   -1.69083721    1.78088059       9
Ni    -0.02322088   -1.72212378   -1.76621877      10
Ni    -1.72663877    1.82841879   -0.02387459      11
Ni     1.80768209   -1.73794845    0.01095418      12
Ni     1.78676784    1.79094040    0.01612331      13
Co     0.01909747    1.79831051    1.80079237      14
Ni     0.02289136    1.78578951   -1.80296043      15
Cr     1.72671055    0.03349009    1.81164738      16
Ni     1.79619669    0.01008392   -1.78668728      17
Ni     0.00000000    0.00000000    0.00000000      18
          18
Lattice="  24.8920   0.0000   0.0000   0.0000  24.8920   0.0000   0.0000   0.0000  24.8920 " ConfE="      -5937.3729" DelE="          0.4372"
Cr    -3.38197749   -0.06183757   -0.00506562       1
Co    -0.02007272   -3.47927741   -0.03589774       2
Ni     3.52765133    0.03106440   -0.00880114       3
Co     0.01939836    3.61751233    0.04583931       4
Cr     0.04209117    0.02325036    3.62359311       5
Co    -0.00981762    0.07278718   -3.66972628       6
Cr    -1.75145528    0.08889618    1.96235980       7
Co    -1.82677046    0.07173076   -1.93834707       8
Co     0.03637576   -1.75937127    1.94764750       9
Ni     0.01075519   -1.73062365   -1.89042853      10
Ni    -1.70044342    1.76279752   -0.02743191      11
Ni     1.73024183   -1.70465494    0.00319705      12
Ni     1.73843044    1.75627093   -0.00053270      13
Co     0.01343321    1.75601788    1.78448025      14
Ni     0.01048466    1.76426267   -1.81706342      15
Cr     1.58720387   -0.00176774    1.73260599      16
Ni     1.77049598    0.01120427   -1.79522985      17
Ni    -0.66801170   -0.58901378    0.05596610      18
          18
Lattice="  24.8920   0.0000   0.0000   0.0000  24.8920   0.0000   0.0000   0.0000  24.8920 " ConfE="      -5938.1062" DelE="         -0.2960"
Cr    -3.50743400    0.04357264   -0.03085548       1
Co     0.03650291   -3.54247341   -0.02300766       2
Ni     3.54287409    0.04007645    0.00008477       3
Co     0.02889528    3.62763074    0.04553539       4
Cr     0.03571681    0.05206970    3.62062394       5
Co    -0.01330469    0.06712355   -3.65006587       6
Cr    -1.61814809    0.06702452    1.75500677       7
Co    -1.77700023    0.04540333   -1.79448803       8
Co     0.01942275   -1.65364501    1.77504872       9
Ni     0.01073047   -1.69286269   -1.78279977      10
Ni    -1.68688606    1.76978765   -0.03095378      11
Ni     1.76505508   -1.70328836    0.01071582      12
Ni     1.75345095    1.76137725    0.00838304      13
Co     0.03147881    1.76584708    1.77868936      14
Ni     0.02173507    1.76440914   -1.80401486      15
Cr     1.64468914    0.03271070    1.76712716      16
Ni     1.77206313    0.01698985   -1.77191325      17
Ni    -1.69643931   -1.69136194   -0.00998301      18
