          18
Lattice="  24.8920   0.0000   0.0000   0.0000  24.8920   0.0000   0.0000   0.0000  24.8920 " ConfE="      -5950.0034" DelE="          0.0000"
Cr     0.02931279   -0.02160741   -3.70792720       1
Ni     3.50300837   -0.05169555   -0.14156425       2
Ni     0.00210249   -0.06861603    3.49253709       3
Cr    -3.57566502   -0.06755068   -0.05368324       4
Ni    -0.00901658   -3.58480771   -0.06269912       5
Co     0.00736003    3.49924668   -0.03556869       6
Ni     0.02629490   -1.73868669   -1.83180687       7
Ni     0.04188682    1.67984554   -1.83414430       8
Ni     1.75923136   -1.76981697   -0.10431275       9
Co     1.77027086    1.70816982   -0.07263346      10
Co    -1.80707900   -0.02970053   -1.85600665      11
Ni     1.75950397   -0.07485854    1.74084758      12
Co    -1.78786383   -0.03234944    1.74179671      13
Co    -1.77844342   -1.76537073   -0.05858586      14
Ni    -1.78913000    1.72825116   -0.05894308      15
Cr    -0.05995082   -1.83976154    1.67866515      16
Cr    -0.01041618    1.76524150    1.69401615      17
Cr     0.00000000    0.00000000    0.00000000      18
          18
Lattice="  24.8920   0.0000   0.0000   0.0000  24.8920   0.0000   0.0000   0.0000  24.8920 " ConfE="      -5949.0129" DelE="          0.9905"
Cr     0.03284474   -0.03153899   -3.64943158       1
Ni     3.48157224   -0.06641413   -0.13143062       2
Ni     0.01026615   -0.07007743    3.49267242       3
Cr    -3.53930661   -0.06243731   -0.07179221       4
Ni    -0.03560280   -3.65678654   -0.05199918       5
Co    -0.00251285    3.57357454   -0.03254912       6
Ni    -0.01597863   -1.88970341   -1.84280916       7
Ni    -0.01798798    1.84951272   -1.86396441       8
Ni     1.77606679   -1.93508337   -0.03322842       9
Co     1.79297920    1.85572725   -0.01667015      10
Co    -1.69837611   -0.03272306   -1.84179384      11
Ni     1.71062076   -0.07338977    1.65020091      12
Co    -1.74505751   -0.02760415    1.70801866      13
Co    -1.72067486   -1.74125165   -0.05508309      14
Ni    -1.71938909    1.70642812   -0.07128624      15
Cr    -0.08497677   -1.74536815    1.57930968      16
Cr     0.00249253    1.68590268    1.61988839      17
Cr     1.00049032   -0.00044123   -0.98233411      18
          18
Lattice="  24.8920   0.0000   0.0000   0.0000  24.8920   0.0000   0.0000   0.0000  24.8920 " ConfE="      -5949.8312" DelE="          0.1722"
Cr     0.01461232   -0.02371317   -3.69626939       1
Ni     3.53187850   -0.05769620   -0.08679930       2
Ni    -0.00787329   -0.07648890    3.51735107       3
Cr    -3.57338507   -0.07682417   -0.04935665       4
Ni    -0.02858583   -3.61533826   -0.06072157       5
Co    -0.00534477    3.53441071   -0.03569971       6
Ni    -0.01042849   -1.76248245   -1.81589622       7
Ni     0.00670314    1.70046898   -1.80578108       8
Ni     1.70939898   -1.77060094   -0.07342256       9
Co     1.73440777    1.71276456   -0.03435943      10
Co    -1.78003570   -0.03370317   -1.84976862      11
Ni     1.68800195   -0.06577588    1.69645755      12
Co    -1.74370205   -0.05059369    1.71526395      13
Co    -1.76897296   -1.75802538   -0.04888223      14
Ni    -1.75317199    1.69133026   -0.05027456      15
Cr    -0.10463465   -1.81079436    1.64837673      16
Cr    -0.03601913    1.73594867    1.69431532      17
Cr     1.74329697   -0.00647917   -1.81249625      18
