          18
Lattice="  24.8920   0.0000   0.0000   0.0000  24.8920   0.0000   0.0000   0.0000  24.8920 " ConfE="      -5938.1027" DelE="          0.0000"
Ni    -3.45593880    0.03626449   -0.01993858       1
Cr    -0.05386070   -3.42999078    0.01320841       2
Cr     3.56146881    0.07735337   -0.04387729       3
Co     0.03256031    3.60065812   -0.01191993       4
Cr     0.00167274    0.07743851   -3.58022840       5
Co     0.03677536    0.05585630    3.58738580       6
Co    -1.71871942    0.05895465   -1.78091347       7
Ni    -1.76303162    0.06274996    1.78988356       8
Cr    -0.02924921   -1.68320432   -1.79749078       9
Ni    -0.00087319   -1.71077044    1.76003721      10
Cr    -1.66812012    1.86209649   -0.02599274      11
Cr     1.81893296   -1.71653093   -0.02884050      12
Cr     1.73905749    1.81976849    0.03475253      13
Co     0.06861453    1.79869765   -1.79133067      14
Co    -0.01087404    1.84014432    1.78745482      15
Co     1.80732043    0.02302522   -1.79517555      16
Ni     1.81983165    0.04217619    1.80260447      17
Ni     0.00000000    0.00000000    0.00000000      18
          18
Lattice="  24.8920   0.0000   0.0000   0.0000  24.8920   0.0000   0.0000   0.0000  24.8920 " ConfE="      -5937.5789" DelE="          0.5239"
Ni    -3.41332736    0.03279817   -0.01721837       1
Cr    -0.03912329   -3.31922120    0.01061638       2
Cr     3.57541415    0.07536006   -0.03917589       3
Co     0.03638885    3.59781623   -0.00846686       4
Cr    -0.01568681    0.11471118   -3.65072986       5
Co     0.03203998    0.07402028    3.65493002       6
Co    -1.78119297    0.12013485   -1.91015262       7
Ni    -1.78229558    0.07945447    1.89672487       8
Cr     0.01897955   -1.69881981   -2.00074839       9
Ni     0.05424613   -1.72543630    1.95430902      10
Cr    -1.53814146    1.77311370   -0.02776199      11
Cr     1.75794087   -1.59624114   -0.01428282      12
Cr     1.61828753    1.65911943    0.05293443      13
Co     0.06205565    1.76092096   -1.79941410      14
Co    -0.00389181    1.80409272    1.79560001      15
Co     1.78986444    0.01627214   -1.82097936      16
Ni     1.83217857    0.03308620    1.86652184      17
Ni    -0.54832153   -0.61098341   -0.03026715      18
          18
Lattice="  24.8920   0.0000   0.0000   0.0000  24.8920   0.0000   0.0000   0.0000  24.8920 " ConfE="      -5937.6304" DelE="          0.4724"
Ni    -3.38133949    0.01706011   -0.01256910       1
Cr    -0.05163467   -3.36659772    0.03059981       2
Cr     3.55386419    0.06402676   -0.03127879       3
Co     0.03832668    3.60156815   -0.00493421       4
Cr    -0.00970425    0.11456228   -3.66764723       5
Co     0.03029282    0.08041593    3.67092273       6
Co    -1.76487394    0.13535510   -1.93016353       7
Ni    -1.78802985    0.09829352    1.93987977       8
Cr     0.02736199   -1.68588089   -1.99108292       9
Ni     0.05562737   -1.72323723    1.97851113      10
Cr    -1.50783004    1.73999447   -0.02552025      11
Cr     1.67788939   -1.56895275   -0.02257545      12
Cr     1.61153293    1.65629350    0.05362209      13
Co     0.06749498    1.76377687   -1.79759178      14
Co    -0.00938879    1.80696423    1.79538467      15
Co     1.78122801    0.01582821   -1.82111374      16
Ni     1.80954165    0.03549540    1.86166629      17
Ni    -0.80890631   -0.83023117   -0.00783291      18
