          18
Lattice="  24.8920   0.0000   0.0000   0.0000  24.8920   0.0000   0.0000   0.0000  24.8920 " ConfE="      -5950.0893" DelE="          0.0000"
Ni     0.03520643   -3.48491174   -0.00120856       1
Ni     0.00831042   -0.01088295   -3.54995500       2
Ni     0.03873283    3.59965754   -0.02065878       3
Co    -3.53804306    0.05140449   -0.00313947       4
Cr    -0.03575840    0.05860437    3.52773814       5
Cr     3.63083777    0.07786030   -0.00989459       6
Ni     0.03480965   -1.75350797    1.75992604       7
Ni    -1.73829138    0.01333004    1.73276510       8
Ni     0.00185714   -1.73801449   -1.73806170       9
Ni    -1.76962421    0.01605075   -1.74630263      10
Ni     1.80323460    0.04260006    1.74963365      11
Ni     0.02498220    1.80720575    1.75061303      12
Ni     1.79498776   -0.00225615   -1.77564576      13
Ni     1.79324600    1.79067417   -0.02145164      14
Ni    -0.01038476    1.79467637   -1.77721545      15
Co     1.88324479   -1.76784195    0.00767928      16
Co    -1.80730067    1.86491083   -0.03624946      17
Ni     0.00000000    0.00000000    0.00000000      18
          18
Lattice="  24.8920   0.0000   0.0000   0.0000  24.8920   0.0000   0.0000   0.0000  24.8920 " ConfE="      -5949.3966" DelE="          0.6927"
Ni     0.02213309   -3.40992935    0.00283866       1
Ni     0.01860576    0.00014818   -3.59991269       2
Ni     0.03460910    3.57775078   -0.01337035       3
Co    -3.50046908    0.03702023    0.00674746       4
Cr     0.01628975    0.06678216    3.60248373       5
Cr     3.65867469    0.07054341   -0.00879089       6
Ni     0.09610357   -1.79910615    1.92983429       7
Ni    -1.78545535    0.06636231    1.94852482       8
Ni     0.06511237   -1.75477006   -1.87606208       9
Ni    -1.79798216    0.04988514   -1.87539951      10
Ni     1.79505497    0.02905915    1.75193144      11
Ni     0.01632629    1.74158339    1.74013579      12
Ni     1.78573820    0.00004052   -1.77505783      13
Ni     1.77203031    1.73345001   -0.01714823      14
Ni    -0.01854686    1.75468491   -1.75645403      15
Co     1.85164543   -1.73070962    0.01620138      16
Co    -1.79959603    1.80455775   -0.02060357      17
Ni    -0.71560268   -0.70950295    0.05413861      18
          18
Lattice="  24.8920   0.0000   0.0000   0.0000  24.8920   0.0000   0.0000   0.0000  24.8920 " ConfE="      -5950.3452" DelE="         -0.2559"
Ni     0.05266184   -3.50738590   -0.00512932       1
Ni     0.01765152   -0.00625455   -3.56274663       2
Ni     0.04391614    3.60934029   -0.01619176       3
Co    -3.57124746    0.07412982   -0.00520164       4
Cr    -0.02078840    0.07373533    3.56338590       5
Cr     3.65531497    0.07621405   -0.01221537       6
Ni     0.05864650   -1.71301696    1.75136410       7
Ni    -1.70601785    0.05130676    1.73229048       8
Ni     0.03406082   -1.71403301   -1.74000384       9
Ni    -1.74912526    0.04789685   -1.75399152      10
Ni     1.78926220    0.04469643    1.72601228      11
Ni     0.03228994    1.78115066    1.72410736      12
Ni     1.78274785    0.00395662   -1.75078166      13
Ni     1.78501276    1.76714743   -0.02126053      14
Ni    -0.00646176    1.77587436   -1.75023344      15
Co     1.86828857   -1.75925767    0.00976917      16
Co    -1.80356415    1.84615518   -0.03721818      17
Ni    -1.73206482   -1.70526989   -0.00983320      18
