          18
Lattice="  24.8920   0.0000   0.0000   0.0000  24.8920   0.0000   0.0000   0.0000  24.8920 " ConfE="      -5924.3763" DelE="          0.0000"
Ni     0.00565290   -0.00092615    3.58717899       1
Co    -3.56589555   -0.03565321    0.05461964       2
Cr     0.06470256   -0.06491905   -3.56275329       3
Cr     3.55487784    0.04857318   -0.04568477       4
Cr     0.07511641   -3.52387919    0.02298114       5
Cr    -0.00416302    3.54092641    0.03939427       6
Ni    -1.75826465    1.71379454    0.03916862       7
Ni    -1.73163845   -1.77738550    0.04744390       8
Ni     0.02721109   -1.74144102    1.79454782       9
Ni    -0.00114541    1.76052143    1.77280387      10
Ni    -1.74586603   -0.03540616   -1.79135400      11
Ni     1.80490217    0.01298928    1.78954435      12
Ni     1.78821455    0.00152430   -1.78310070      13
Ni     1.80868855   -1.74741046    0.01857053      14
Ni     0.01548998    1.74028705   -1.77894634      15
Co     1.79218789    1.81321232    0.00932119      16
Co     0.05319680   -1.81894383   -1.76573191      17
Ni     0.00000000    0.00000000    0.00000000      18
          18
Lattice="  24.8920   0.0000   0.0000   0.0000  24.8920   0.0000   0.0000   0.0000  24.8920 " ConfE="      -5920.5097" DelE="          3.8666"
Ni     0.07252947   -0.03011399    3.70274605       1
Co    -3.66613905   -0.10144705   -0.06821864       2
Cr     0.07610890   -0.07134295   -3.61445806       3
Cr     3.61019926    0.04922725   -0.06446687       4
Cr     0.06071326   -3.48398202    0.03162512       5
Cr    -0.02855804    3.41338054    0.03376252       6
Ni    -2.46639534    3.26385128    1.07872382       7
Ni    -1.70224079   -1.64814996    0.04690316       8
Ni     0.03248032   -1.59327456    1.76489166       9
Ni     0.02148494    1.28478697    1.64022121      10
Ni    -1.73604429   -0.09851067   -1.91050112      11
Ni     1.94996678   -0.03621039    1.83483008      12
Ni     1.79330376   -0.00520977   -1.78567429      13
Ni     1.79211220   -1.69049119    0.02315220      14
Ni     0.02270794    1.67152039   -1.79049498      15
Co     1.80559476    1.76274758    0.01933129      16
Co     0.06189249   -1.79888453   -1.75845443      17
Ni    -1.64664659    1.34100001   -0.03076559      18
          18
Lattice="  24.8920   0.0000   0.0000   0.0000  24.8920   0.0000   0.0000   0.0000  24.8920 " ConfE="      -5923.7031" DelE="          0.6732"
Ni    -0.02407999    0.01125636    3.52225246       1
Co    -3.53063445   -0.02651297    0.07092718       2
Cr     0.05985286   -0.06918132   -3.55514810       3
Cr     3.54822104    0.03616177   -0.02560786       4
Cr     0.10599990   -3.62383690   -0.00137874       5
Cr     0.04532190    3.60314592    0.00469505       6
Ni    -1.74555229    3.62824944    1.76034052       7
Ni    -1.71925703   -1.92577092    0.02185565       8
Ni     0.08891234   -1.92048803    1.82365778       9
Ni    -0.85756233    0.05256944    0.99509732      10
Ni    -1.67840732   -0.03599739   -1.66317050      11
Ni     1.71677835    0.02273379    1.75479260      12
Ni     1.74924560   -0.01655994   -1.74410710      13
Ni     1.78351203   -1.75833805    0.02878981      14
Ni     0.02153316    1.73633587   -1.73654051      15
Co     1.76252558    1.80447734    0.01382990      16
Co     0.05920943   -1.83425847   -1.73372439      17
Ni    -1.77632802    1.90015261   -0.01407260      18
