          18
Lattice="  24.8920   0.0000   0.0000   0.0000  24.8920   0.0000   0.0000   0.0000  24.8920 " ConfE="      -5922.9594" DelE="          0.0000"
Ni     0.04103115   -0.02863890   -3.51752587       1
Co     3.61048918   -0.01637944    0.00161878       2
Cr    -0.02323020    0.03316483    3.54530949       3
Cr    -3.59901647   -0.00017240   -0.02711549       4
Co     0.02108431   -3.53075890    0.03272041       5
Cr     0.00306029    3.50195348   -0.01273957       6
Co     0.06653032   -1.76080221   -1.74439434       7
Co     0.06776291    1.73911141   -1.78492632       8
Co     1.77044361   -1.74231728    0.00791695       9
Ni     1.79654735    1.74189727   -0.00962927      10
Cr    -1.77297600   -0.00882917   -1.76424176      11
Ni     1.81952359    0.01233572    1.80151576      12
Co    -1.76780313   -0.00771994    1.76438782      13
Cr    -1.74240668   -1.76384366   -0.00852898      14
Cr    -1.77124778    1.74201370   -0.00592220      15
Cr     0.02427454   -1.76277044    1.73982371      16
Co    -0.02036047    1.75651734    1.79177569      17
Co     0.00000000    0.00000000    0.00000000      18
          18
Lattice="  24.8920   0.0000   0.0000   0.0000  24.8920   0.0000   0.0000   0.0000  24.8920 " ConfE="      -5921.9401" DelE="          1.0193"
Ni     0.04771643   -0.02913846   -3.48935150       1
Co     3.55256831   -0.01706714   -0.01834715       2
Cr    -0.01540928    0.03601365    3.55181511       3
Cr    -3.61389420    0.00471721   -0.06825361       4
Co     0.01387094   -3.58393801    0.03830428       5
Cr    -0.00284732    3.56476060   -0.00365198       6
Co     0.02725773   -1.94500723   -1.80393027       7
Co     0.02094272    1.92715075   -1.81157759       8
Co     1.78818127   -1.88217112    0.07276132       9
Ni     1.82856666    1.88889174    0.04338242      10
Cr    -1.66272555   -0.00548403   -1.71582609      11
Ni     1.80063411    0.02170046    1.74714964      12
Co    -1.71090936   -0.00587353    1.68673706      13
Cr    -1.67361853   -1.73771092   -0.02512834      14
Cr    -1.71027981    1.71607234   -0.01278415      15
Cr     0.03381427   -1.71107742    1.68576008      16
Co    -0.01072009    1.75200900    1.74775130      17
Co     0.81309491   -0.01316614   -0.86034590      18
          18
Lattice="  24.8920   0.0000   0.0000   0.0000  24.8920   0.0000   0.0000   0.0000  24.8920 " ConfE="      -5922.9699" DelE="         -0.0105"
Ni     0.01245192   -0.02864218   -3.56009887       1
Co     3.63537451   -0.02336599    0.02233929       2
Cr    -0.02632638    0.03302324    3.57340313       3
Cr    -3.63609384    0.00150694   -0.05199505       4
Co     0.02085335   -3.54573382    0.03864078       5
Cr    -0.00569443    3.53630643   -0.01458570       6
Co     0.03531314   -1.74468952   -1.71421762       7
Co     0.01516886    1.73046849   -1.74990015       8
Co     1.73197366   -1.73503784    0.03591319       9
Ni     1.76634743    1.74365374    0.01723402      10
Cr    -1.69934272   -0.00727309   -1.72989295      11
Ni     1.79839688    0.01442838    1.77874466      12
Co    -1.73229554   -0.01087819    1.71374558      13
Cr    -1.70616515   -1.71133074   -0.00124872      14
Cr    -1.74184715    1.68861608    0.00325789      15
Cr     0.03064427   -1.72063334    1.70929577      16
Co    -0.02915333    1.73503001    1.75499295      17
Co     1.80753949    0.00772817   -1.76412848      18
