          18
Lattice="  24.8920   0.0000   0.0000   0.0000  24.8920   0.0000   0.0000   0.0000  24.8920 " ConfE="      -5949.0404" DelE="          0.0000"
Ni     0.03972994    0.05952258    3.48712413       1
Ni    -3.52189638    0.07979501   -0.05411033       2
Ni     0.01833253    0.10976811   -3.62835415       3
Co     0.02594673   -3.37399328   -0.01612228       4
Cr     3.57096363    0.05947158    0.02543303       5
Co    -0.04661534    3.62657745   -0.05673533       6
Ni     1.76476259    0.02340779    1.73762187       7
Ni    -1.74571490    0.06315893    1.72456864       8
Ni    -0.01604005    1.87620867    1.74241326       9
Ni     1.76666816    1.83726294   -0.03246218      10
Co     1.85248819   -1.68607576   -0.08628849      11
Ni     0.01338314    1.81758568   -1.79891901      12
Co    -1.81244480   -1.72977560   -0.11016596      13
Ni    -1.77217228    0.08159237   -1.83340613      14
Cr    -1.79101107    1.87539005   -0.02703155      15
Cr     1.77046939   -0.04482772   -1.75078426      16
Co     0.01414254   -1.70160550   -1.84108391      17
Ni     0.00000000    0.00000000    0.00000000      18
          18
Lattice="  24.8920   0.0000   0.0000   0.0000  24.8920   0.0000   0.0000   0.0000  24.8920 " ConfE="      -5948.4479" DelE="          0.5925"
Ni     0.04155276    0.06014509    3.45670846       1
Ni    -3.56600108    0.09967031   -0.05431430       2
Ni     0.02089106    0.10976480   -3.62638032       3
Co     0.02688718   -3.38530051   -0.03774275       4
Cr     3.62736179    0.07469344   -0.00757596       5
Co    -0.04137759    3.63856899   -0.04726232       6
Ni     1.90885971    0.11271058    1.77287948       7
Ni    -1.86525376    0.15600551    1.75759795       8
Ni    -0.00600631    1.83380161    1.71969489       9
Ni     1.76179627    1.80308994   -0.03413820      10
Co     1.99182867   -1.69412204   -0.12433429      11
Ni     0.01250931    1.79907955   -1.76576670      12
Co    -1.93508444   -1.75089973   -0.16800560      13
Ni    -1.75439355    0.08393283   -1.79349237      14
Cr    -1.77530472    1.85550636   -0.00882398      15
Cr     1.71841063   -0.04283819   -1.69204426      16
Co     0.03954267   -1.63202368   -1.75615531      17
Ni     0.00980097   -1.00206100    0.98839120      18
          18
Lattice="  24.8920   0.0000   0.0000   0.0000  24.8920   0.0000   0.0000   0.0000  24.8920 " ConfE="      -5948.9382" DelE="          0.1022"
Ni     0.02401170    0.10707995    3.51731446       1
Ni    -3.53307987    0.08292125   -0.05522284       2
Ni     0.01690217    0.11442370   -3.63733218       3
Co     0.02654580   -3.43224288   -0.04569126       4
Cr     3.60712810    0.07086986    0.01681724       5
Co    -0.04167622    3.64987458   -0.06021182       6
Ni     1.77241801    0.08373050    1.71496212       7
Ni    -1.73713880    0.10162450    1.68364824       8
Ni    -0.02181046    1.86494964    1.71535208       9
Ni     1.75115668    1.81188818   -0.04591615      10
Co     1.83530149   -1.65365386   -0.07796066      11
Ni     0.00838419    1.79887573   -1.77546118      12
Co    -1.78850559   -1.71242297   -0.11057715      13
Ni    -1.75675816    0.08724154   -1.80517597      14
Cr    -1.79458692    1.89484495   -0.03655580      15
Cr     1.72155886   -0.04570262   -1.70924886      16
Co     0.03498737   -1.63129298   -1.76690272      17
Ni     0.01450072   -1.62833668    1.69202873      18
