          18
Lattice="  24.8920   0.0000   0.0000   0.0000  24.8920   0.0000   0.0000   0.0000  24.8920 " ConfE="      -5945.0674" DelE="          0.0000"
Ni    -0.06033666    3.44068217    0.00801105       1
Co    -3.49989057   -0.05220278    0.09910230       2
Co     0.02247880   -0.08795041   -3.49288839       3
Cr     0.04038509   -3.64805577    0.05987782       4
Cr    -0.00528536   -0.04810047    3.58041503       5
Cr     3.53279460   -0.06381459    0.07554713       6
Ni    -1.77219321   -0.05799422   -1.70063501       7
Ni    -0.07177683    1.69961418   -1.72572302       8
Ni    -1.75714007   -1.84674323    0.05290329       9
Cr    -1.77904757    0.10180045    1.73543767      10
Cr    -0.02029456    1.72836727    1.81126556      11
Ni    -0.03637343   -1.81916760    1.81444978      12
Ni     1.75250268   -1.83327161    0.05814956      13
Co     1.79092061    1.70511085    0.02794452      14
Co     0.00998041   -1.83173993   -1.73396826      15
Cr     1.75563033   -0.05696792   -1.75639176      16
Co     1.73671500   -0.04843588    1.81785933      17
Cr     0.00000000    0.00000000    0.00000000      18
          18
Lattice="  24.8920   0.0000   0.0000   0.0000  24.8920   0.0000   0.0000   0.0000  24.8920 " ConfE="      -5943.8815" DelE="          1.1859"
Ni    -0.03629200    3.38034732    0.00513742       1
Co    -3.43472770   -0.04423394    0.10350265       2
Co     0.03480546   -0.10808132   -3.59381768       3
Cr     0.10301172   -3.53935112    0.09244297       4
Cr     0.00071741   -0.07841484    3.77290510       5
Cr     3.47676639   -0.06300733    0.08575254       6
Ni    -1.74861385   -0.10341562   -1.81707367       7
Ni    -0.00550155    1.69363143   -1.88258186       8
Ni    -1.68205331   -1.77228324    0.07109941       9
Cr    -1.79352448   -0.03261241    1.98312794      10
Cr     0.13259192    1.74074157    1.99895691      11
Ni    -0.05540956   -1.79006722    1.93954921      12
Ni     1.20476908   -1.13917419    0.02636773      13
Co     1.71161171    1.59953062    0.02447690      14
Co    -0.01558465   -1.85392807   -1.85854699      15
Cr     1.75158392   -0.01684723   -1.92320042      16
Co     1.70532067    0.01621786    2.02233493      17
Cr    -0.81565446    0.81644353    0.10378043      18
          18
Lattice="  24.8920   0.0000   0.0000   0.0000  24.8920   0.0000   0.0000   0.0000  24.8920 " ConfE="      -5944.5488" DelE="          0.5186"
Ni     0.00091181    3.46077784    0.00560383       1
Co    -3.53755163   -0.08246642    0.09264562       2
Co     0.03111071   -0.09895436   -3.55802632       3
Cr     0.13225472   -3.52329637    0.08555355       4
Cr     0.00794921   -0.05816867    3.67040835       5
Cr     3.42368701   -0.12588757    0.08884644       6
Ni    -1.73774055   -0.09154987   -1.72700323       7
Ni    -0.00685394    1.63578526   -1.74582462       8
Ni    -1.67837621   -1.79863005    0.06017482       9
Cr    -1.69942158   -0.03828839    1.82967179      10
Cr     0.05135807    1.65042267    1.80633080      11
Ni    -0.02835787   -1.85357721    1.95901489      12
Ni     0.88682582   -0.90696959    0.00798847      13
Co     1.72376795    1.61691850    0.04481603      14
Co    -0.00631678   -1.90116941   -1.90732321      15
Cr     1.84755189   -0.05939638   -1.91152006      16
Co     1.75044814   -0.02909518    2.02265523      17
Cr    -1.70878148    1.62081471    0.05492924      18
