          18
Lattice="  24.8920   0.0000   0.0000   0.0000  24.8920   0.0000   0.0000   0.0000  24.8920 " ConfE="      -5934.1058" DelE="          0.0000"
Ni     0.04869808    3.51060282    0.02105185       1
Ni     0.03715906   -0.04525361   -3.50457925       2
Ni     0.02890059   -0.03109837    3.58529170       3
Ni     0.07362960   -3.60822159    0.03738790       4
Ni    -3.46185247   -0.01538411    0.04013705       5
Ni     3.60759153   -0.03877969    0.02120366       6
Co     0.08106498    1.73150573   -1.75310945       7
Cr     1.84548203    1.73564871    0.02563967       8
Ni     0.06542030   -1.80800875   -1.75141339       9
Cr    -1.74169343    0.05475850   -1.69568510      10
Cr     1.84649764   -0.01162555   -1.77160060      11
Ni    -1.70491366   -1.83307956    0.03727554      12
Co     0.05530186    1.71507339    1.77349302      13
Cr     0.06536692   -1.84475238    1.81238918      14
Cr    -1.68033031    0.03674911    1.77137497      15
Cr     1.74710262   -0.04453327    1.76795962      16
Co     1.79727808   -1.75281698    0.03654436      17
Ni     0.00000000    0.00000000    0.00000000      18
          18
Lattice="  24.8920   0.0000   0.0000   0.0000  24.8920   0.0000   0.0000   0.0000  24.8920 " ConfE="      -5933.4106" DelE="          0.6952"
Ni     0.06946426    3.50069820    0.03208834       1
Ni     0.05891632   -0.07185065   -3.58398631       2
Ni     0.06734008   -0.04619421    3.66043383       3
Ni     0.06557358   -3.60317886    0.03246330       4
Ni    -3.41644399    0.00278747    0.03038089       5
Ni     3.60921964   -0.03448179    0.01244764       6
Co     0.19795093    1.73601245   -1.94077011       7
Cr     1.75093559    1.69145203    0.00336158       8
Ni     0.05684514   -1.75766455   -1.74386440       9
Cr    -1.75554802   -0.01875126   -1.89624565      10
Cr     1.76188945   -0.01111114   -1.68543182      11
Ni    -1.64535498   -1.74084452    0.03531482      12
Co     0.17227834    1.74388583    1.94378305      13
Cr     0.03260214   -1.84785948    1.82445072      14
Cr    -1.63583423   -0.04666905    1.91749496      15
Cr     1.55796864   -0.10682150    1.55843586      16
Co     1.76828087   -1.73974681    0.00538705      17
Ni    -1.01890253    1.12734547   -0.01849117      18
          18
Lattice="  24.8920   0.0000   0.0000   0.0000  24.8920   0.0000   0.0000   0.0000  24.8920 " ConfE="      -5933.8650" DelE="          0.2408"
Ni     0.06662658    3.56361995    0.02456400       1
Ni     0.05134930   -0.06309585   -3.51556517       2
Ni     0.05727167   -0.03337579    3.59439198       3
Ni     0.07061643   -3.64433989    0.03368946       4
Ni    -3.49080250   -0.04283299    0.04398410       5
Ni     3.61156328   -0.04393780    0.01095200       6
Co     0.12691088    1.67213735   -1.72276846       7
Cr     1.79476811    1.73408415    0.00602200       8
Ni     0.07154349   -1.80828231   -1.72912600       9
Cr    -1.66305782   -0.01100387   -1.67866529      10
Cr     1.75704433   -0.02305097   -1.65796344      11
Ni    -1.65657893   -1.79502917    0.03998237      12
Co     0.10764735    1.69903677    1.77080199      13
Cr     0.05378909   -1.88688046    1.81827318      14
Cr    -1.54890060   -0.03183093    1.71982059      15
Cr     1.56355686   -0.11296528    1.52317417      16
Co     1.78219237   -1.77272685    0.00540736      17
Ni    -1.65812521    1.71794596    0.02729776      18
