          18
Lattice="  24.8920   0.0000   0.0000   0.0000  24.8920   0.0000   0.0000   0.0000  24.8920 " ConfE="      -5937.9332" DelE="          0.0000"
Co    -0.03720795    0.07395809   -3.45277646       1
Co     0.07192873    3.52416469   -0.04050822       2
Co     0.05119637   -0.02826793    3.64298639       3
Co     0.04522047   -3.56266088    0.07123964       4
Ni    -3.47871995   -0.00491442    0.03428611       5
Co     3.63316613    0.02915833    0.01237847       6
Cr    -1.62832881    0.05625898   -1.71802671       7
Co     1.73868583    0.03785446   -1.72859570       8
Ni    -1.69846527    1.77556375    0.00991892       9
Co     1.78493377    1.77623514    0.00777894      10
Ni     0.02472707   -1.80013328   -1.72169951      11
Ni     0.03770521    1.74907283    1.83496639      12
Co     0.03888140   -1.78929547    1.82104439      13
Co    -1.71729382   -1.77147578    0.08948303      14
Cr     1.78971338   -1.72062689    0.03598109      15
Cr    -1.66361686   -0.04405614    1.78093329      16
Ni     1.79832007    0.00132162    1.81415023      17
Co     0.00000000    0.00000000    0.00000000      18
          18
Lattice="  24.8920   0.0000   0.0000   0.0000  24.8920   0.0000   0.0000   0.0000  24.8920 " ConfE="      -5937.3416" DelE="          0.5917"
Co    -0.01201834    0.08585236   -3.42147689       1
Co     0.06318252    3.45370293   -0.04785455       2
Co     0.05463837   -0.01999941    3.65066243       3
Co     0.04218925   -3.54258290    0.07117334       4
Ni    -3.53441208   -0.00315267    0.05254597       5
Co     3.69842216    0.02451444    0.02740998       6
Cr    -1.80826337    0.01755784   -1.72902294       7
Co     1.93902087   -0.05050341   -1.77052968       8
Ni    -1.84298904    1.81275638    0.10035657       9
Co     1.90426545    1.79160220    0.05794417      10
Ni     0.03806673   -1.72531151   -1.70066123      11
Ni     0.02921693    1.71941001    1.79024221      12
Co     0.04067350   -1.73372124    1.78927993      13
Co    -1.66355024   -1.64838909    0.07463759      14
Cr     1.76188642   -1.65497080    0.02253428      15
Cr    -1.64532202   -0.04259195    1.74144039      16
Ni     1.79381801    0.00968815    1.78935677      17
Co     0.00997751    0.69985011   -0.75825797      18
          18
Lattice="  24.8920   0.0000   0.0000   0.0000  24.8920   0.0000   0.0000   0.0000  24.8920 " ConfE="      -5938.2799" DelE="         -0.3466"
Co     0.05304057   -0.01263536   -3.54975109       1
Co     0.06476302    3.55194627    0.01218927       2
Co     0.05656873   -0.03278044    3.66252580       3
Co     0.04543932   -3.56651149    0.07875168       4
Ni    -3.51094700   -0.00691668    0.03890648       5
Co     3.65766642    0.02865587    0.02081730       6
Cr    -1.63922283    0.03211924   -1.68544543       7
Co     1.75352575    0.00102014   -1.67196669       8
Ni    -1.70364617    1.73231499    0.05361254       9
Co     1.78847646    1.75683573    0.03074471      10
Ni     0.03335657   -1.74701917   -1.68540991      11
Ni     0.03353437    1.69449695    1.79545447      12
Co     0.04263539   -1.76937893    1.80955250      13
Co    -1.67021919   -1.68628516    0.09510561      14
Cr     1.79145121   -1.70834041    0.03470679      15
Cr    -1.64581303   -0.07898209    1.75737015      16
Ni     1.78447445   -0.01352327    1.79083171      17
Co    -0.00806996    1.72085025   -1.74114193      18
