          18
Lattice="  24.8920   0.0000   0.0000   0.0000  24.8920   0.0000   0.0000   0.0000  24.8920 " ConfE="      -5935.3979" DelE="          0.0000"
Co     0.04326314    3.50468071   -0.00576052       1
Ni     3.47916762    0.05114992   -0.02709540       2
Cr    -0.05560802   -3.47884253   -0.01246624       3
Co    -3.60923898    0.00744079   -0.06820488       4
Co    -0.01737834   -0.00217215   -3.57414248       5
Cr    -0.03144367   -0.00901053    3.50362440       6
Ni     0.04776718    1.75541788   -1.74356196       7
Co    -0.01593528    1.76959341    1.75333570       8
Co     1.75123408   -0.00303870   -1.81600017       9
Ni     1.75277398    0.03394736    1.73693858      10
Co    -1.81868813    1.79233798   -0.04884267      11
Co     1.74300100   -1.79608708   -0.03664109      12
Co    -1.80487741   -1.76527003   -0.05427433      13
Ni    -1.78257909    0.01349809   -1.78009249      14
Ni    -1.82589213    0.01314808    1.72665981      15
Co    -0.04943839   -1.79043342   -1.79683155      16
Co    -0.03132982   -1.73312876    1.73958352      17
Co     0.00000000    0.00000000    0.00000000      18
          18
Lattice="  24.8920   0.0000   0.0000   0.0000  24.8920   0.0000   0.0000   0.0000  24.8920 " ConfE="      -5931.6074" DelE="          3.7905"
Co     0.11764970    3.26619877   -0.93027065       1
Ni     3.56515429    0.02210352   -0.06172406       2
Cr    -0.06074752   -3.48876906   -0.01790079       3
Co    -3.69729826    0.01615033   -0.07840514       4
Co    -0.03323428    0.00109719   -3.50751476       5
Cr    -0.03296103   -0.02085735    3.50447611       6
Ni     0.23430119    0.91429497   -0.99464116       7
Co    -0.04325078    3.05196327    1.32127115       8
Co     1.98156654   -0.21839379   -1.92622455       9
Ni     2.01940185   -0.12832796    1.76437494      10
Co    -1.86870028    1.85490215   -0.02415244      11
Co     1.74025323   -1.78704129   -0.06175220      12
Co    -1.81277790   -1.72665162   -0.05073576      13
Ni    -1.85502641    0.02756803   -1.75036736      14
Ni    -2.05469531   -0.03070646    1.75165701      15
Co    -0.06784523   -1.77389236   -1.77521870      16
Co    -0.04734942   -1.64976176    1.68630084      17
Co     0.02447373    0.84092174    1.39192455      18
          18
Lattice="  24.8920   0.0000   0.0000   0.0000  24.8920   0.0000   0.0000   0.0000  24.8920 " ConfE="      -5935.5911" DelE="         -0.1931"
Co     0.08775441    1.79421930   -1.76691598       1
Ni     3.47351612    0.04820537   -0.02494628       2
Cr    -0.04904347   -3.50966059   -0.01143603       3
Co    -3.59486960    0.00997978   -0.07500953       4
Co    -0.01330492    0.00601299   -3.56790826       5
Cr    -0.03695476   -0.01820246    3.53420738       6
Ni     0.01040363    0.04615347   -0.01752927       7
Co     0.04175818    3.49735428   -0.00459481       8
Co     1.75001628    0.00895120   -1.82516989       9
Ni     1.74627008    0.03176954    1.74800287      10
Co    -1.81454663    1.80553565   -0.06121829      11
Co     1.74261557   -1.80111989   -0.03789461      12
Co    -1.79861434   -1.76457751   -0.06147418      13
Ni    -1.77275462    0.02620712   -1.78660241      14
Ni    -1.81428958    0.01382587    1.72745794      15
Co    -0.04639293   -1.79837997   -1.79861620      16
Co    -0.02823993   -1.74390385    1.74027782      17
Co    -0.01678387    1.78474057    1.77583609      18
