          18
Lattice="  24.8920   0.0000   0.0000   0.0000  24.8920   0.0000   0.0000   0.0000  24.8920 " ConfE="      -5932.5937" DelE="          0.0000"
Ni     3.51479411    0.02950754   -0.04892932       1
Co    -0.04425714    3.61595154   -0.07128793       2
Cr    -0.00013172    0.04427773   -3.66741954       3
Cr    -0.02718505    0.02275354    3.52009015       4
Cr    -3.52322674    0.01131779    0.02577463       5
Cr    -0.09515128   -3.48792894   -0.03654068       6
Ni     1.67906714    1.80644527   -0.06571595       7
Cr     1.62666845    0.05783786   -1.82293414       8
Ni    -0.03587445    1.84077084    1.77617264       9
Cr    -1.73878388    1.78694088   -0.05205621      10
Cr    -1.48310251    0.17074107   -1.76404911      11
Ni    -0.03217302   -1.74230879    1.78637415      12
Co     1.75270679    0.03319106    1.75023662      13
Co    -0.01105072   -1.78421417   -1.81320967      14
Cr     1.74622786   -1.76468684   -0.01083274      15
Co    -1.81346960    0.04694388    1.75781742      16
Co    -1.79026590   -1.69964718   -0.04047227      17
Co     0.00000000    0.00000000    0.00000000      18
          18
Lattice="  24.8920   0.0000   0.0000   0.0000  24.8920   0.0000   0.0000   0.0000  24.8920 " ConfE="      -5932.0794" DelE="          0.5143"
Ni     3.59054501    0.02847683   -0.03120555       1
Co    -0.03151703    3.55966793   -0.09380325       2
Cr    -0.00527450    0.09850433   -3.56803953       3
Cr    -0.01512579    0.03578670    3.52937878       4
Cr    -3.64265963   -0.00795236    0.15884250       5
Cr    -0.07313453   -3.47181325   -0.03851059       6
Ni     1.80458203    1.82141819   -0.03169889       7
Cr     1.87329210    0.01853331   -1.83703719       8
Ni    -0.03658409    1.78928997    1.69912759       9
Cr    -1.86103636    1.76895880   -0.01346154      10
Cr    -2.10310822   -0.04448047   -1.76240844      11
Ni    -0.02623985   -1.67820027    1.73966938      12
Co     1.74833784    0.03612851    1.70482765      13
Co    -0.03546749   -1.68514456   -1.79629328      14
Cr     1.67657318   -1.65226023   -0.05345557      15
Co    -1.82398687    0.05138500    1.74183547      16
Co    -1.76201908   -1.64502031   -0.02735031      17
Co    -0.10769455    0.72778988   -0.98344289      18
          18
Lattice="  24.8920   0.0000   0.0000   0.0000  24.8920   0.0000   0.0000   0.0000  24.8920 " ConfE="      -5932.7282" DelE="         -0.1346"
Ni     3.54539334    0.02326092   -0.04757928       1
Co    -0.04047020    3.64840134   -0.04421758       2
Cr    -0.00425761    0.03655282   -3.68740403       3
Cr    -0.02912184    0.01772740    3.54084065       4
Cr    -3.59125537    0.00484415    0.07387719       5
Cr    -0.09787349   -3.51401715   -0.03238771       6
Ni     1.69038830    1.77352040   -0.03876099       7
Cr     1.62574043    0.00775076   -1.77950127       8
Ni    -0.04061528    1.81047209    1.73335423       9
Cr    -1.75400142    1.74153907   -0.02246945      10
Cr    -1.53929956    0.05245003   -1.68633528      11
Ni    -0.03715068   -1.71442867    1.75316698      12
Co     1.71483398    0.01475174    1.69884076      13
Co    -0.00307952   -1.74682286   -1.78866730      14
Cr     1.70943314   -1.72394987   -0.00528362      15
Co    -1.79473039    0.05171383    1.72346696      16
Co    -1.75447759   -1.65997076   -0.02921078      17
Co    -0.03141694    1.83832831   -1.80740105      18
