          18
Lattice="  24.8920   0.0000   0.0000   0.0000  24.8920   0.0000   0.0000   0.0000  24.8920 " ConfE="      -5934.0671" DelE="          0.0000"
Ni     0.01327461   -0.03331002    3.48154375       1
Ni     3.55169239   -0.01184380   -0.05702543       2
Ni    -3.54934964   -0.01230868   -0.03243490       3
Cr     0.00561011    0.04239529   -3.61059396       4
Co     0.03899404   -3.59776331    0.00397861       5
Cr    -0.01033136    3.52430182    0.01888762       6
Ni     1.75488894   -1.74408636   -0.03098448       7
Ni     1.75360685    1.73190303   -0.00888591       8
Ni    -1.76812573   -1.79887360   -0.02669997       9
Ni    -1.78017177    1.75512639   -0.03374955      10
Co     0.05077139   -1.81583212    1.80277200      11
Cr     0.00498679    1.71990392    1.78808341      12
Ni     0.00690582   -1.75564121   -1.83733190      13
Cr    -1.80452372   -0.05832820    1.76018925      14
Co    -1.74400460    0.02445604   -1.80481633      15
Co     1.74588083    0.02801122   -1.85688487      16
Cr     0.03539183    1.75925841   -1.85685763      17
Ni     0.00000000    0.00000000    0.00000000      18
          18
Lattice="  24.8920   0.0000   0.0000   0.0000  24.8920   0.0000   0.0000   0.0000  24.8920 " ConfE="      -5933.3744" DelE="          0.6927"
Ni    -0.01801222   -0.03069765    3.46217506       1
Ni     3.50550046   -0.00042512   -0.04250565       2
Ni    -3.53160751   -0.01192547   -0.03225541       3
Cr     0.01107890    0.03659823   -3.63008449       4
Co     0.01978137   -3.64662917   -0.00695852       5
Cr     0.00331664    3.59131179   -0.05267934       6
Ni     1.75595656   -1.84557865   -0.07481869       7
Ni     1.76064751    1.85693402   -0.07648091       8
Ni    -1.72368129   -1.79104839   -0.01525849       9
Ni    -1.72384806    1.74840718   -0.03483008      10
Co     0.00147639   -2.02241347    1.86445294      11
Cr    -0.09387024    1.96925928    1.81007930      12
Ni     0.01523681   -1.74777383   -1.82112274      13
Cr    -1.73351767   -0.07460384    1.71013888      14
Co    -1.67007851    0.02843867   -1.75972545      15
Co     1.70432553    0.04315068   -1.79918039      16
Cr     0.02859473    1.70581776   -1.84899269      17
Ni     0.83445616    0.02064627    1.04727759      18
          18
Lattice="  24.8920   0.0000   0.0000   0.0000  24.8920   0.0000   0.0000   0.0000  24.8920 " ConfE="      -5933.9079" DelE="          0.1592"
Ni    -0.02003218   -0.03178678    3.53528811       1
Ni     3.55796839   -0.00475256   -0.06531049       2
Ni    -3.54060845   -0.01297478   -0.03786002       3
Cr     0.00324247    0.04007480   -3.65945972       4
Co     0.02993710   -3.62396234   -0.00033939       5
Cr    -0.01080642    3.57840176   -0.00440226       6
Ni     1.71435214   -1.74042546   -0.06514262       7
Ni     1.69230101    1.73712220   -0.04430740       8
Ni    -1.73213501   -1.77699271   -0.03350314       9
Ni    -1.72813096    1.73083122   -0.05032000      10
Co     0.00090894   -1.82666891    1.79007472      11
Cr    -0.07877690    1.72313863    1.74351796      12
Ni     0.00542170   -1.74022291   -1.84402680      13
Cr    -1.73555828   -0.06504758    1.72508645      14
Co    -1.68352876    0.03041185   -1.78887119      15
Co     1.69602756    0.04264775   -1.82777412      16
Cr     0.01691302    1.71160775   -1.87837479      17
Ni     1.70022151   -0.01017236    1.70989618      18
