          18
Lattice="  24.8920   0.0000   0.0000   0.0000  24.8920   0.0000   0.0000   0.0000  24.8920 " ConfE="      -5934.7832" DelE="          0.0000"
Ni    -0.03477586    3.50398826   -0.01309359       1
Cr    -0.05063039   -0.03507099    3.56825317       2
Co    -3.49339817   -0.01918577    0.07180062       3
Ni     3.54341859    0.01466243    0.01184113       4
Cr    -0.00279720    0.07015333   -3.60253061       5
Cr    -0.05995562   -3.48360925    0.01949001       6
Ni    -0.06263631    1.71535266    1.78687656       7
Cr    -1.83649980    1.61324110    0.03437242       8
Ni     1.76964096    0.00362773   -1.78309329       9
Ni     1.77504870   -1.76570285    0.01327381      10
Cr    -1.78897109   -1.62193431    0.09433204      11
Co    -0.06341901   -1.71848148    1.79036308      12
Co     1.74136023    1.78041903   -0.01165527      13
Cr     1.78986433    0.02510918    1.82205681      14
Cr    -0.02426782    1.78941516   -1.80354331      15
Co    -1.73336704   -0.03650035   -1.84997256      16
Cr    -0.03521600   -1.77445586   -1.80293192      17
Ni     0.00000000    0.00000000    0.00000000      18
          18
Lattice="  24.8920   0.0000   0.0000   0.0000  24.8920   0.0000   0.0000   0.0000  24.8920 " ConfE="      -5934.1173" DelE="          0.6659"
Ni     0.01397247    3.59136963   -0.03111014       1
Cr    -0.08711854   -0.02201517    3.52987222       2
Co    -3.49266685   -0.01395023    0.07426240       3
Ni     3.53192678    0.01042672    0.02482895       4
Cr    -0.00795880    0.08193462   -3.60449990       5
Cr    -0.00263360   -3.59314328   -0.02228450       6
Ni     0.03111261    1.93403743    1.82551063       7
Cr    -1.80364467    1.90732645   -0.06106453       8
Ni     1.74717899    0.00446274   -1.75242260       9
Ni     1.71940044   -1.74816755    0.01608329      10
Cr    -1.75114634   -1.88598802   -0.03741271      11
Co     0.00987302   -1.92658903    1.81727400      12
Co     1.66925758    1.73965542   -0.00747779      13
Cr     1.65943400    0.02169075    1.76870473      14
Cr    -0.03890438    1.71525717   -1.72968311      15
Co    -1.70912641   -0.01133466   -1.74760297      16
Cr    -0.04057819   -1.66757184   -1.74832149      17
Ni    -1.07980316    0.03052430    1.11253851      18
          18
Lattice="  24.8920   0.0000   0.0000   0.0000  24.8920   0.0000   0.0000   0.0000  24.8920 " ConfE="      -5934.7528" DelE="          0.0304"
Ni    -0.02124099    3.52745146   -0.02096716       1
Cr     0.04048312   -0.01913154    3.61605804       2
Co    -3.56880969   -0.01467938    0.04198940       3
Ni     3.54937785    0.01250476    0.01201326       4
Cr     0.02432034    0.09693160   -3.64507027       5
Cr    -0.03974879   -3.53139266    0.00686141       6
Ni    -0.01964558    1.73343417    1.75986252       7
Cr    -1.76792687    1.62191567   -0.03634945       8
Ni     1.74474353    0.00263838   -1.76166214       9
Ni     1.73995764   -1.73516444    0.00547495      10
Cr    -1.66182522   -1.60664416    0.01229212      11
Co    -0.02153058   -1.71038459    1.74152603      12
Co     1.69084133    1.73198361   -0.01712755      13
Cr     1.74830861    0.02497791    1.79110835      14
Cr    -0.01853779    1.73429689   -1.76628620      15
Co    -1.71176799   -0.01815830   -1.78109125      16
Cr    -0.02388663   -1.69884851   -1.77494900      17
Ni    -1.78848854    0.02561677    1.83186165      18
