          18
Lattice="  24.8920   0.0000   0.0000   0.0000  24.8920   0.0000   0.0000   0.0000  24.8920 " ConfE="      -5936.6946" DelE="          0.0000"
Cr     0.02476794    3.42937836   -0.00403674       1
Co     0.00140634   -0.02579098    3.42932550       2
Co     3.58965534   -0.04286894   -0.05584931       3
Co     0.00143690   -0.00632528   -3.63148953       4
Co    -0.01300107   -3.62363854   -0.02383216       5
Cr    -3.52165460    0.03512489   -0.09901693       6
Ni     1.78985238    1.71159516   -0.04212623       7
Co     1.83189470   -0.08153504    1.74053568       8
Co    -1.78785663   -0.06758131    1.71823705       9
Co    -1.70687231    1.75984188   -0.00779373      10
Ni     1.76428757   -0.04912903   -1.82677166      11
Ni     1.76841376   -1.82964154   -0.04340175      12
Ni    -0.00871742   -1.80909944   -1.81950663      13
Ni    -1.76835947   -1.79919723   -0.06237916      14
Cr    -0.05583282    1.73638996   -1.85291407      15
Cr    -0.04117939   -1.82646384    1.76336846      16
Co    -1.79982255   -0.00169179   -1.82081316      17
Ni     0.00000000    0.00000000    0.00000000      18
          18
Lattice="  24.8920   0.0000   0.0000   0.0000  24.8920   0.0000   0.0000   0.0000  24.8920 " ConfE="      -5936.2530" DelE="          0.4416"
Cr     0.00390222    3.30547799    0.05040242       1
Co    -0.00029287   -0.01404880    3.37905005       2
Co     3.63405264   -0.05726462   -0.07493652       3
Co     0.01062884   -0.00680855   -3.65692256       4
Co    -0.01268708   -3.62484895   -0.02600260       5
Cr    -3.56806451    0.02243889   -0.09631515       6
Ni     1.93424701    1.72424263   -0.10159502       7
Co     1.98809264   -0.12562831    1.76202350       8
Co    -1.94276548   -0.09852998    1.74955323       9
Co    -1.90054777    1.74827875   -0.06912916      10
Ni     1.77822754   -0.05616837   -1.83283111      11
Ni     1.76414235   -1.80896826   -0.04907950      12
Ni    -0.00507852   -1.78100905   -1.80544598      13
Ni    -1.75531030   -1.76455754   -0.06192230      14
Cr    -0.07139080    1.64520618   -1.76949977      15
Cr    -0.03749748   -1.75958589    1.71004954      16
Co    -1.76582157    0.00731480   -1.81399230      17
Ni     0.01820473    0.61316076    0.63412733      18
          18
Lattice="  24.8920   0.0000   0.0000   0.0000  24.8920   0.0000   0.0000   0.0000  24.8920 " ConfE="      -5936.6887" DelE="          0.0060"
Cr     0.03343541    3.50508892   -0.09148342       1
Co     0.01366224   -0.06250168    3.51546409       2
Co     3.60144627   -0.04775585   -0.06218489       3
Co     0.00405412   -0.01051444   -3.66162185       4
Co    -0.01675586   -3.63847867   -0.03301378       5
Cr    -3.56546131    0.01826553   -0.10886568       6
Ni     1.78258562    1.68792586   -0.08091655       7
Co     1.81421653   -0.09973384    1.72530548       8
Co    -1.73702284   -0.10037284    1.68206988       9
Co    -1.71086298    1.69576050   -0.07221312      10
Ni     1.74087024   -0.05768772   -1.81692341      11
Ni     1.73986735   -1.80913805   -0.04881673      12
Ni    -0.01564732   -1.79188731   -1.81110193      13
Ni    -1.74978080   -1.77652671   -0.07970445      14
Cr    -0.08629552    1.64752024   -1.77069187      15
Cr    -0.05128932   -1.75633763    1.70901304      16
Co    -1.76532130   -0.00132016   -1.82454757      17
Ni     0.02664205    1.67187897    1.66355366      18
