          18
Lattice="  24.8920   0.0000   0.0000   0.0000  24.8920   0.0000   0.0000   0.0000  24.8920 " ConfE="      -5950.0026" DelE="          0.0000"
Ni    -0.06142216   -0.01128961   -3.49024889       1
Co     3.46143167    0.02181116   -0.02243241       2
Co    -0.03954596    0.01996526    3.59886995       3
Cr    -3.58749214    0.03323369    0.04594564       4
Ni    -0.01144842   -3.55560396    0.04156212       5
Ni    -0.00980409    3.58691657    0.03639854       6
Ni    -0.00800763   -1.76071972   -1.73322690       7
Ni     0.00538089    1.75616471   -1.73664509       8
Ni     1.75378714   -1.74674496   -0.02445341       9
Cr     1.75762648    1.79326561    0.03652964      10
Co    -1.89266164    0.03410447   -1.76496618      11
Ni     1.72722670    0.01617311    1.81548309      12
Co    -1.80627494   -0.00117589    1.83572461      13
Ni    -1.80160720   -1.76324204    0.03063773      14
Ni    -1.77693591    1.78353217    0.03435276      15
Cr    -0.07177244   -1.73357061    1.79492486      16
Co    -0.01651168    1.78946257    1.82338046      17
Ni     0.00000000    0.00000000    0.00000000      18
          18
Lattice="  24.8920   0.0000   0.0000   0.0000  24.8920   0.0000   0.0000   0.0000  24.8920 " ConfE="      -5949.3728" DelE="          0.6297"
Ni    -0.04907795   -0.01601827   -3.43477398       1
Co     3.46780811    0.00667159   -0.01774083       2
Co    -0.02433606    0.02512312    3.58914033       3
Cr    -3.59782447    0.02876888    0.02532270       4
Ni    -0.02693170   -3.62904893    0.05489686       5
Ni    -0.05101891    3.62594211    0.03333065       6
Ni    -0.05381444   -1.86999051   -1.72824090       7
Ni    -0.11035973    1.91271783   -1.79391844       8
Ni     1.76232416   -1.89553700    0.04407173       9
Cr     1.76561836    1.98240627    0.08985148      10
Co    -1.86654415    0.03501182   -1.74965084      11
Ni     1.68377201    0.01537643    1.71805390      12
Co    -1.75704946   -0.01043800    1.78192346      13
Ni    -1.76881366   -1.75312583    0.01735354      14
Ni    -1.77058153    1.76789224    0.02590420      15
Cr    -0.07239867   -1.69831483    1.72295034      16
Co    -0.01427514    1.78093066    1.77419176      17
Ni     0.94820875    0.07210592   -0.86387929      18
          18
Lattice="  24.8920   0.0000   0.0000   0.0000  24.8920   0.0000   0.0000   0.0000  24.8920 " ConfE="      -5950.0557" DelE="         -0.0532"
Ni    -0.07628089   -0.01718017   -3.52052458       1
Co     3.51236482    0.01356591    0.03114912       2
Co    -0.03796796    0.02294016    3.62233050       3
Cr    -3.59775025    0.03585539    0.03595269       4
Ni    -0.02693701   -3.58334824    0.04800451       5
Ni    -0.01276476    3.60135687    0.03480202       6
Ni    -0.05086217   -1.75779629   -1.70557604       7
Ni    -0.02786667    1.75190934   -1.71189568       8
Ni     1.68132104   -1.74809633    0.04161447       9
Cr     1.72302051    1.78464265    0.05998177      10
Co    -1.87191813    0.03640635   -1.76768223      11
Ni     1.67717451    0.00764291    1.77351972      12
Co    -1.77354529   -0.01105544    1.81401578      13
Ni    -1.77717231   -1.73562069    0.02807492      14
Ni    -1.74912540    1.74910738    0.03749442      15
Cr    -0.11433036   -1.71401744    1.78842796      16
Co    -0.01459007    1.76782723    1.79685973      17
Ni     1.69887207   -0.01503467   -1.70727669      18
