          18
Lattice="  24.8920   0.0000   0.0000   0.0000  24.8920   0.0000   0.0000   0.0000  24.8920 " ConfE="      -5938.1446" DelE="          0.0000"
Ni    -0.02818997   -0.00362794   -3.43775316       1
Co    -0.01591687    3.46110859    0.02441326       2
Co    -0.03671966   -0.03586545    3.70432537       3
Ni    -0.02641627   -3.59977964    0.12693702       4
Ni    -3.55293724   -0.02838393    0.14527200       5
Cr     3.47958109   -0.05459371    0.08763462       6
Cr    -1.70465788    0.01445773   -1.61825477       7
Cr     1.65914922   -0.00926841   -1.67010174       8
Ni    -1.80592613    1.73900025    0.10988183       9
Co     1.74486926    1.69431166    0.07568642      10
Co    -0.05984632   -1.85284356   -1.71090724      11
Co    -0.00382532    1.75117969    1.88587334      12
Co    -0.01918945   -1.78645950    1.88242851      13
Ni    -1.77803548   -1.81448279    0.09667601      14
Co     1.73578535   -1.79596702    0.10069287      15
Cr    -1.60716278   -0.02628212    1.83564073      16
Cr     1.65211037   -0.05957517    1.87771823      17
Co     0.00000000    0.00000000    0.00000000      18
          18
Lattice="  24.8920   0.0000   0.0000   0.0000  24.8920   0.0000   0.0000   0.0000  24.8920 " ConfE="      -5937.0236" DelE="          1.1210"
Ni    -0.03194197   -0.00451428   -3.40924861       1
Co    -0.02580008    3.37012771    0.01407069       2
Co    -0.03259790   -0.05044210    3.64722657       3
Ni    -0.03734472   -3.53420084    0.13469041       4
Ni    -3.65417780   -0.03609224    0.12410480       5
Cr     3.61031635   -0.05841939    0.09113559       6
Cr    -1.92207495   -0.05157520   -1.68380112       7
Cr     1.83081871   -0.09522290   -1.66320182       8
Ni    -1.95749346    1.73594573    0.15891516       9
Co     1.86592070    1.71041095    0.16269186      10
Co    -0.03875179   -1.73016857   -1.61755697      11
Co    -0.03064617    1.62537905    1.80471956      12
Co    -0.05160145   -1.05985048    1.26130568      13
Ni    -1.89895306   -1.79782306    0.03482223      14
Co     1.83306277   -1.79190739    0.07073940      15
Cr    -1.86820053    0.04399942    1.90212612      16
Cr     1.83334407   -0.00443717    1.86756103      17
Co    -0.03804143    0.77735343   -0.79386118      18
          18
Lattice="  24.8920   0.0000   0.0000   0.0000  24.8920   0.0000   0.0000   0.0000  24.8920 " ConfE="      -5938.4641" DelE="         -0.3195"
Ni    -0.03283012   -0.04181732   -3.47126811       1
Co    -0.00567031    3.48988744    0.07227614       2
Co    -0.03710335   -0.06210732    3.64800824       3
Ni    -0.02568342   -3.58296285    0.15492836       4
Ni    -3.54300170   -0.03981702    0.16537010       5
Cr     3.47712181   -0.06565430    0.10368353       6
Cr    -1.75121525   -0.04825220   -1.62575402       7
Cr     1.70755541   -0.07920535   -1.66998210       8
Ni    -1.80051414    1.71622990    0.13989111       9
Co     1.75874440    1.70022179    0.11577732      10
Co    -0.05380963   -1.83552798   -1.70908586      11
Co    -0.00039139    1.77116023    1.88486371      12
Co     0.01685655   -0.07046509    0.10879826      13
Ni    -1.75431444   -1.82952996    0.13631347      14
Co     1.73088083   -1.80134374    0.14222041      15
Cr    -1.53470461   -0.11203918    1.84388241      16
Cr     1.61097137   -0.12556785    1.86569195      17
Co     0.00364584    1.70259818   -1.67294089      18
