          18
Lattice="  24.8920   0.0000   0.0000   0.0000  24.8920   0.0000   0.0000   0.0000  24.8920 " ConfE="      -5925.8810" DelE="          0.0000"
Co     0.02039739    3.48036204    0.01998209       1
Ni     3.54859687    0.03003792   -0.02963520       2
Ni     0.00525010   -3.56906770    0.05049409       3
Cr    -3.53932536   -0.00272626   -0.06039858       4
Ni    -0.00214421   -0.01948585   -3.55018476       5
Cr     0.01066372    0.06279640    3.48551814       6
Ni     0.04406734    1.71010934   -1.73718514       7
Co     0.03858738    1.76507788    1.74153972       8
Co     1.80408265   -0.01810555   -1.81344431       9
Ni     1.80102615    0.06249245    1.68829877      10
Co    -1.82385565    1.77639892   -0.03347228      11
Ni     1.78248276   -1.79200621   -0.01703203      12
Ni    -1.76244804   -1.77585908   -0.02197328      13
Co    -1.78939433   -0.02313043   -1.78799902      14
Ni    -1.80019968   -0.00189995    1.73466477      15
Co    -0.00323712   -1.80990111   -1.79575954      16
Cr     0.02887729   -1.72569921    1.77445473      17
Co     0.00000000    0.00000000    0.00000000      18
          18
Lattice="  24.8920   0.0000   0.0000   0.0000  24.8920   0.0000   0.0000   0.0000  24.8920 " ConfE="      -5924.9016" DelE="          0.9794"
Co     0.02823264    3.45911730    0.01221129       1
Ni     3.52765608    0.02359810   -0.01875148       2
Ni     0.00790602   -3.56422101    0.05451313       3
Cr    -3.53466312    0.02344613   -0.06594959       4
Ni    -0.00888319   -0.04574782   -3.61520621       5
Cr    -0.00797972    0.02315069    3.58252744       6
Ni    -0.04494454    1.72691412   -1.93985690       7
Co     0.00276433    1.78180211    1.87489403       8
Co     1.82343365   -0.06178582   -1.93526023       9
Ni     1.82952314   -0.03537729    1.87371033      10
Co    -1.71533042    1.75194578   -0.05228883      11
Ni     1.73432651   -1.71655910   -0.02339595      12
Ni    -1.71030188   -1.71747324   -0.02190144      13
Co    -1.76670902   -0.02104709   -1.79127018      14
Ni    -1.73766062    0.01860743    1.71157342      15
Co    -0.00199944   -1.78029059   -1.80182325      16
Cr     0.03640773   -1.68852187    1.76705183      17
Co     1.05058359    1.03457962   -0.04166470      18
          18
Lattice="  24.8920   0.0000   0.0000   0.0000  24.8920   0.0000   0.0000   0.0000  24.8920 " ConfE="      -5925.8142" DelE="          0.0668"
Co     0.00321215    3.51444413    0.00926375       1
Ni     3.58147184   -0.01690398   -0.02435746       2
Ni     0.00101302   -3.58053058    0.04513170       3
Cr    -3.56832168   -0.00411603   -0.05473702       4
Ni    -0.00661930   -0.02272502   -3.56930776       5
Cr     0.00722835    0.03879657    3.53464523       6
Ni     0.01915935    1.66555818   -1.71588267       7
Co     0.02902016    1.72949736    1.72606654       8
Co     1.79771976   -0.02884146   -1.81650135       9
Ni     1.75512900   -0.01220835    1.70826208      10
Co    -1.80567494    1.76735677   -0.03453773      11
Ni     1.74085434   -1.75819706   -0.02402823      12
Ni    -1.73000618   -1.74084209   -0.02022150      13
Co    -1.78176244   -0.02516513   -1.77157990      14
Ni    -1.75865868   -0.00458861    1.70841087      15
Co    -0.00991285   -1.78894187   -1.78818095      16
Cr     0.00944728   -1.74610036    1.77943165      17
Co     1.81593427    1.75874870   -0.00344554      18
