          18
Lattice="  24.8920   0.0000   0.0000   0.0000  24.8920   0.0000   0.0000   0.0000  24.8920 " ConfE="      -5940.0601" DelE="          0.0000"
Cr    -3.53498730    0.05079001   -0.03625980       1
Ni    -0.00366446    3.46463206   -0.02040343       2
Co     3.54281091   -0.03791899    0.02616438       3
Co     0.01131922   -3.57753375   -0.02366066       4
Co    -0.00687199   -0.02611427    3.54172412       5
Co    -0.02676625   -0.06363158   -3.59985724       6
Cr    -1.75848852   -0.00520736    1.72012997       7
Co    -1.77035402   -0.05887189   -1.76496376       8
Ni    -0.01459006    1.72142186    1.73324934       9
Ni    -0.01327650    1.69997074   -1.78226075      10
Ni    -1.76442293   -1.83799433    0.01026118      11
Co     1.80115492    1.66504401   -0.02205366      12
Ni     1.78865420   -1.81010823   -0.01255769      13
Ni     0.00494452   -1.81927872    1.77692596      14
Cr    -0.02164217   -1.76834239   -1.80729216      15
Cr     1.77061847   -0.09701768    1.82623544      16
Cr     1.73657046   -0.06174562   -1.79532503      17
Cr     0.00000000    0.00000000    0.00000000      18
          18
Lattice="  24.8920   0.0000   0.0000   0.0000  24.8920   0.0000   0.0000   0.0000  24.8920 " ConfE="      -5939.3816" DelE="          0.6785"
Cr    -3.58683416    0.04398626   -0.05620698       1
Ni     0.00241281    3.42760888   -0.02956831       2
Co     3.55983895   -0.03013481    0.03603955       3
Co    -0.00584143   -3.55919996   -0.02603219       4
Co     0.03189611   -0.03429541    3.62963213       5
Co    -0.01539136   -0.06691691   -3.68066846       6
Cr    -1.66707170   -0.06705416    1.89638193       7
Co    -1.78089073   -0.08582971   -1.93942121       8
Ni     0.03778230    1.75179937    1.87510964       9
Ni     0.03255640    1.72731515   -1.93809065      10
Ni    -1.74370747   -1.72087272    0.00283183      11
Co     1.68320676    1.58442255   -0.02750544      12
Ni     1.75808528   -1.77241248   -0.00862847      13
Ni     0.02060167   -1.78232073    1.76441172      14
Cr    -0.03946463   -1.66882596   -1.76436102      15
Cr     1.68493957   -0.05405709    1.74500423      16
Cr     1.65672277   -0.04185427   -1.71618699      17
Cr    -1.06149878    0.97103311   -0.05274925      18
          18
Lattice="  24.8920   0.0000   0.0000   0.0000  24.8920   0.0000   0.0000   0.0000  24.8920 " ConfE="      -5940.1344" DelE="         -0.0743"
Cr    -3.61211374   -0.03194576   -0.02692266       1
Ni     0.01724561    3.49528033   -0.02566779       2
Co     3.58632501   -0.04267073    0.02896400       3
Co     0.00993679   -3.59548388   -0.02872864       4
Co     0.01175763   -0.02923059    3.57407318       5
Co    -0.02665227   -0.06373395   -3.62554360       6
Cr    -1.71082774   -0.03807885    1.73744188       7
Co    -1.75176650   -0.08079574   -1.77887124       8
Ni     0.01273632    1.68139345    1.71457609       9
Ni    -0.00891335    1.67869365   -1.77890496      10
Ni    -1.73519052   -1.79372518    0.00745548      11
Co     1.75179645    1.59159051   -0.03423117      12
Ni     1.76880577   -1.78813570   -0.01791454      13
Ni     0.02089417   -1.78879254    1.75162821      14
Cr    -0.01878497   -1.73791540   -1.79454075      15
Cr     1.76882603   -0.09990871    1.78208708      16
Cr     1.69623700   -0.07008023   -1.73488536      17
Cr    -1.78187000    1.67551016   -0.01530713      18
