          18
Lattice="  24.8920   0.0000   0.0000   0.0000  24.8920   0.0000   0.0000   0.0000  24.8920 " ConfE="      -5947.2860" DelE="          0.0000"
Ni     0.02566559   -3.55596325    0.02010667       1
Ni     0.01002599   -0.02243682    3.53929391       2
Ni    -0.02417193    3.58740994   -0.00712155       3
Ni    -0.02034476   -0.00801851   -3.53837411       4
Cr     3.57114628   -0.04177062   -0.01029424       5
Cr    -3.59948184    0.01631964   -0.04752712       6
Ni     1.79862061   -0.04366199    1.74070815       7
Ni    -1.78984999    1.81029978    0.00990929       8
Cr     0.02513437   -1.74273796    1.71524016       9
Co     0.01737689   -1.77056990   -1.71604343      10
Co     1.76538149   -0.06409954   -1.70314606      11
Cr    -1.82935840   -1.76695627   -0.03887471      12
Co    -1.78718529    0.00517797    1.74328251      13
Cr    -1.79329506    0.04582818   -1.81307796      14
Cr     1.76902092    1.82676118   -0.00777648      15
Cr     0.06175119    1.78554936    1.77837330      16
Co    -0.01046789    1.78773101   -1.77640507      17
Cr     0.00000000    0.00000000    0.00000000      18
          18
Lattice="  24.8920   0.0000   0.0000   0.0000  24.8920   0.0000   0.0000   0.0000  24.8920 " ConfE="      -5946.4917" DelE="          0.7943"
Ni     0.01903478   -3.49138595    0.03151912       1
Ni     0.01420100   -0.00726683    3.59074196       2
Ni    -0.00590821    3.58215054   -0.00308962       3
Ni    -0.02514084    0.01368872   -3.61455306       4
Cr     3.56198754    0.01186054   -0.00151475       5
Cr    -3.57688374    0.01124111   -0.05725277       6
Ni     1.85290960    0.02140869    1.89166927       7
Ni    -1.72447387    1.76354320    0.01187763       8
Cr    -0.01242578   -1.73307118    1.86597140       9
Co    -0.03518298   -1.78270369   -1.89429027      10
Co     1.77010024    0.02444652   -1.85115063      11
Cr    -1.81044348   -1.74625536   -0.06167307      12
Co    -1.70731112   -0.03503806    1.69225126      13
Cr    -1.67012207    0.02833455   -1.74060534      14
Cr     1.76567788    1.79386103    0.00518022      15
Cr     0.08532752    1.66174782    1.69355072      16
Co     0.00998317    1.74435172   -1.75225729      17
Cr     0.83431232   -0.88415649    0.00557413      18
          18
Lattice="  24.8920   0.0000   0.0000   0.0000  24.8920   0.0000   0.0000   0.0000  24.8920 " ConfE="      -5946.9808" DelE="          0.3052"
Ni    -0.01356986   -3.59487181    0.01602145       1
Ni     0.01004829   -0.00554685    3.56558997       2
Ni    -0.02103868    3.59772397   -0.00933977       3
Ni    -0.03786700    0.00017028   -3.56328083       4
Cr     3.60680837   -0.01250112   -0.01047767       5
Cr    -3.60404711    0.02091373   -0.04556745       6
Ni     1.77971503   -0.00733404    1.75192969       7
Ni    -1.75658682    1.78450658    0.00946032       8
Cr    -0.03302875   -1.68360811    1.70346672       9
Co    -0.04416831   -1.72363429   -1.70478499      10
Co     1.72134292   -0.02184156   -1.70548031      11
Cr    -1.78489661   -1.71486674   -0.03318243      12
Co    -1.74873726    0.00203933    1.71029660      13
Cr    -1.76980840    0.05439058   -1.77193582      14
Cr     1.73387055    1.77098982   -0.02122066      15
Cr     0.06550591    1.74844522    1.72659150      16
Co    -0.01765923    1.75716366   -1.74636691      17
Cr     1.77795249   -1.75900034   -0.01280064      18
