          18
Lattice="  24.8920   0.0000   0.0000   0.0000  24.8920   0.0000   0.0000   0.0000  24.8920 " ConfE="      -5938.3648" DelE="          0.0000"
Co    -0.04583854   -3.48369593    0.05859771       1
Co     3.48664929    0.06434963   -0.03049520       2
Co    -0.05516398    3.60258451   -0.03023206       3
Ni    -3.60353381    0.05229119   -0.00199997       4
Co    -0.08726198    0.04357951   -3.53139161       5
Co    -0.06877442    0.02142926    3.58033193       6
Ni    -0.05686252   -1.73691028   -1.72007193       7
Co    -0.05200566   -1.74146205    1.75794438       8
Co     1.66083353    0.02462188   -1.71493108       9
Ni     1.68347321    0.03228715    1.75371311      10
Co    -1.84725592   -1.69664780    0.04629358      11
Co     1.68541061    1.86528178    0.00005165      12
Ni    -1.83344319    1.81813529    0.00792016      13
Cr    -1.76573810    0.05323633   -1.74630833      14
Cr    -1.76538711   -0.00117692    1.74614187      15
Co    -0.10197808    1.80524732   -1.77998436      16
Ni    -0.07136423    1.80426180    1.78226586      17
Cr     0.00000000    0.00000000    0.00000000      18
          18
Lattice="  24.8920   0.0000   0.0000   0.0000  24.8920   0.0000   0.0000   0.0000  24.8920 " ConfE="      -5937.7839" DelE="          0.5809"
Co    -0.03595599   -3.42663450    0.04513758       1
Co     3.42579826    0.05235299   -0.03430228       2
Co    -0.04195611    3.59550961   -0.03570624       3
Ni    -3.61970547    0.04235531   -0.00847697       4
Co    -0.09041028    0.05554674   -3.62514704       5
Co    -0.06568659    0.04294368    3.65843804       6
Ni    -0.08800938   -1.75544856   -1.86253650       7
Co    -0.08256641   -1.72102035    1.87775079       8
Co     1.65187658    0.08959970   -1.87158134       9
Ni     1.73520968    0.08779518    1.92560013      10
Co    -1.76090844   -1.63083769    0.02873251      11
Co     1.66195550    1.78664788   -0.00702395      12
Ni    -1.80484658    1.78270882    0.00611562      13
Cr    -1.68867721    0.03519461   -1.66652020      14
Cr    -1.72375961   -0.01984560    1.68796395      15
Co    -0.10700259    1.75940210   -1.78020930      16
Ni    -0.06007146    1.72359339    1.74831506      17
Cr     0.78566921   -0.74255669    0.02462224      18
          18
Lattice="  24.8920   0.0000   0.0000   0.0000  24.8920   0.0000   0.0000   0.0000  24.8920 " ConfE="      -5938.2799" DelE="          0.0850"
Co    -0.07862842   -3.50625322    0.03581290       1
Co     3.53359868    0.08891414   -0.02212148       2
Co    -0.05930472    3.61220454   -0.03074951       3
Ni    -3.63501474    0.05334158   -0.00403230       4
Co    -0.07102717    0.04762291   -3.59268987       5
Co    -0.06749901    0.02747783    3.61958702       6
Ni    -0.09071117   -1.68676090   -1.72834870       7
Co    -0.08143235   -1.70912066    1.76661372       8
Co     1.62945801    0.06127841   -1.71490548       9
Ni     1.66040671    0.04673500    1.74789293      10
Co    -1.79428693   -1.62602689    0.05216682      11
Co     1.66440872    1.81709400   -0.01219408      12
Ni    -1.82771391    1.79257326    0.01067376      13
Cr    -1.76329056    0.09237750   -1.72838422      14
Cr    -1.76988077   -0.01872382    1.71443136      15
Co    -0.13213770    1.78110852   -1.78408071      16
Ni    -0.09053337    1.75475522    1.75251569      17
Cr     1.66738347   -1.64808214   -0.00823200      18
