          18
Lattice="  24.8920   0.0000   0.0000   0.0000  24.8920   0.0000   0.0000   0.0000  24.8920 " ConfE="      -5950.6637" DelE="          0.0000"
Cr     0.02207626   -3.53545878    0.03360580       1
Cr    -0.06941266   -0.07381094    3.47437718       2
Ni     0.03370927    3.56006126   -0.02548613       3
Co     0.00208525    0.05744608   -3.61052601       4
Cr    -3.52427314   -0.00816284    0.02702988       5
Cr     3.54899557   -0.06257757   -0.02689298       6
Ni    -1.70410544   -1.79084026    0.02686568       7
Ni     1.74742324   -1.76281099   -0.00397946       8
Co    -1.77469790    0.00903208    1.75749253       9
Ni     1.72143921   -0.02074141    1.75734354      10
Ni     0.02812958   -1.76858342   -1.83213409      11
Ni    -0.01502316    1.78905342    1.76242486      12
Co     0.01889608    1.81294622   -1.83368473      13
Ni    -1.74894469    0.01157611   -1.78286994      14
Ni     1.78292126    0.02349765   -1.81225219      15
Co    -1.80074643    1.79737295   -0.04471053      16
Ni     1.79460723    1.77863225   -0.01960400      17
Ni     0.00000000    0.00000000    0.00000000      18
          18
Lattice="  24.8920   0.0000   0.0000   0.0000  24.8920   0.0000   0.0000   0.0000  24.8920 " ConfE="      -5950.1127" DelE="          0.5510"
Cr     0.02038560   -3.48520962    0.05387443       1
Cr    -0.05302662   -0.07981381    3.42503187       2
Ni     0.04109823    3.55906993   -0.01541003       3
Co     0.01029848    0.03968407   -3.61157963       4
Cr    -3.58224307   -0.00404891    0.00178996       5
Cr     3.59741533   -0.05023182   -0.05861492       6
Ni    -1.86659776   -1.84401383   -0.03072303       7
Ni     1.86177396   -1.77518296   -0.03557573       8
Co    -1.96802696    0.06105649    1.80126870       9
Ni     1.87639768    0.04036036    1.76679145      10
Ni     0.03511484   -1.75013269   -1.76111385      11
Ni    -0.01554139    1.72728285    1.73695283      12
Co     0.02487218    1.78310649   -1.80331092      13
Ni    -1.71474527   -0.00597645   -1.71941345      14
Ni     1.79020970    0.01671978   -1.79708470      15
Co    -1.77726412    1.75999506   -0.03259434      16
Ni     1.78992550    1.75553907   -0.02601325      17
Ni    -0.05121761   -0.57464938    0.61781841      18
          18
Lattice="  24.8920   0.0000   0.0000   0.0000  24.8920   0.0000   0.0000   0.0000  24.8920 " ConfE="      -5951.2689" DelE="         -0.6052"
Cr     0.01463525   -3.57584897   -0.01510274       1
Cr    -0.06075741   -0.01870880    3.53666879       2
Ni     0.03539587    3.57607482   -0.02186071       3
Co     0.00859293    0.05386432   -3.62338875       4
Cr    -3.56608908    0.00479874    0.00332798       5
Cr     3.57607140   -0.04946510   -0.04932416       6
Ni    -1.73087058   -1.75247843   -0.02763579       7
Ni     1.75291034   -1.74139094   -0.02754708       8
Co    -1.79360188    0.03031547    1.71694605       9
Ni     1.72965607    0.02177117    1.70525558      10
Ni     0.02905650   -1.74714098   -1.79373268      11
Ni    -0.02158629    1.74571810    1.73301489      12
Co     0.01985477    1.80298520   -1.81891567      13
Ni    -1.72068626    0.02091368   -1.75647951      14
Ni     1.76982046    0.02855537   -1.79422862      15
Co    -1.77759693    1.78181100   -0.05256576      16
Ni     1.76920833    1.76578856   -0.03356878      17
Ni    -0.00983700   -1.73677263    1.72313775      18
