          18
Lattice="  24.8920   0.0000   0.0000   0.0000  24.8920   0.0000   0.0000   0.0000  24.8920 " ConfE="      -5946.9941" DelE="          0.0000"
Ni     0.07450126    0.04726579    3.53337799       1
Cr    -0.06756260   -3.47527490   -0.01368444       2
Cr    -3.48230569    0.05374970   -0.03674044       3
Cr     0.06144607    0.00858551   -3.53650689       4
Co     3.63063266    0.03633657   -0.05960785       5
Co     0.04330326    3.63107389   -0.04448341       6
Ni     0.02799815   -1.72948433    1.74919567       7
Ni    -1.74814661    0.04112602   -1.76528274       8
Cr    -1.74694559    0.04088838    1.73273914       9
Cr    -0.05612965   -1.74573513   -1.71787678      10
Cr     1.82610879   -1.72633803   -0.04420386      11
Cr     1.87163450    0.04530864    1.74314732      12
Co    -1.74236427    1.86779729   -0.02195161      13
Cr     0.04475459    1.85459046    1.74164717      14
Cr     0.03058079    1.81095308   -1.76368491      15
Co     1.80610013    0.05393850   -1.78881920      16
Cr     1.81139694    1.79749690   -0.01544595      17
Co     0.00000000    0.00000000    0.00000000      18
          18
Lattice="  24.8920   0.0000   0.0000   0.0000  24.8920   0.0000   0.0000   0.0000  24.8920 " ConfE="      -5946.2464" DelE="          0.7477"
Ni     0.08767257    0.07094283    3.60183610       1
Cr    -0.08188999   -3.39240872   -0.00529121       2
Cr    -3.46664721    0.06852433   -0.04620414       3
Cr     0.07524470    0.04288549   -3.62962960       4
Co     3.63219173    0.02368137   -0.06378190       5
Co     0.04334846    3.61477376   -0.06327547       6
Ni     0.11206461   -1.74567269    1.93782683       7
Ni    -1.80707184    0.12295827   -1.96479074       8
Cr    -1.73835103    0.10452846    1.92132100       9
Cr    -0.06332864   -1.68903152   -1.85669983      10
Cr     1.67590970   -1.61674668   -0.03755172      11
Cr     1.81796060    0.04839864    1.73669865      12
Co    -1.70530722    1.76816629   -0.02986885      13
Cr     0.03553830    1.79913689    1.67969892      14
Cr     0.01844877    1.68472474   -1.69290039      15
Co     1.78933182    0.04334106   -1.79325577      16
Cr     1.77003193    1.69967315   -0.02881526      17
Co    -0.95338665   -0.82247062    0.04436015      18
          18
Lattice="  24.8920   0.0000   0.0000   0.0000  24.8920   0.0000   0.0000   0.0000  24.8920 " ConfE="      -5946.8218" DelE="          0.1723"
Ni     0.07753827    0.05937154    3.55387251       1
Cr    -0.03172342   -3.52700795   -0.01864787       2
Cr    -3.55279838    0.07774392   -0.02777776       3
Cr     0.05191511    0.03420850   -3.57631971       4
Co     3.65887842    0.03507012   -0.05470025       5
Co     0.05324609    3.62675125   -0.05978254       6
Ni     0.05925432   -1.68545529    1.74413969       7
Ni    -1.76052859    0.06333217   -1.77573297       8
Cr    -1.71141762    0.08088530    1.74078798       9
Cr     0.02593839   -1.61320344   -1.70451058      10
Cr     1.77984641   -1.65265948   -0.03176995      11
Cr     1.85369482    0.05359701    1.73763609      12
Co    -1.72685477    1.81636760   -0.01437566      13
Cr     0.04403469    1.80644902    1.65950513      14
Cr     0.04031918    1.68189887   -1.66099110      15
Co     1.81957541    0.06561991   -1.77399650      16
Cr     1.82032434    1.74674746   -0.01196336      17
Co    -1.70346703   -1.66434336   -0.00091263      18
