          18
Lattice="  24.8920   0.0000   0.0000   0.0000  24.8920   0.0000   0.0000   0.0000  24.8920 " ConfE="      -5924.9520" DelE="          0.0000"
Co    -0.01760172    0.00391967   -3.42676098       1
Ni     3.52737245   -0.01438516    0.04436996       2
Co    -0.06695915   -0.04163214    3.63860249       3
Co    -3.61042280    0.00528673    0.09321980       4
Ni    -0.00745290   -3.50245736    0.04251431       5
Ni    -0.00763627    3.46883754    0.02367697       6
Cr    -0.02734953   -1.63708297   -1.73279190       7
Cr     0.01909348    1.63835735   -1.79230920       8
Cr     1.76665044   -1.68059128   -0.04252284       9
Cr     1.74016092    1.69144708   -0.00396454      10
Ni    -1.88278793    0.01935799   -1.71590894      11
Ni     1.75020479   -0.01252603    1.85986532      12
Cr    -1.79714437   -0.09811961    1.85309253      13
Cr    -1.82377599   -1.75697741    0.01631435      14
Cr    -1.84260180    1.74603435    0.09911352      15
Co    -0.03919577   -1.75109098    1.79239893      16
Ni    -0.04018868    1.74348802    1.84740627      17
Co     0.00000000    0.00000000    0.00000000      18
          18
Lattice="  24.8920   0.0000   0.0000   0.0000  24.8920   0.0000   0.0000   0.0000  24.8920 " ConfE="      -5924.3457" DelE="          0.6063"
Co     0.00503763    0.01348369   -3.40453135       1
Ni     3.50229631   -0.00055789    0.02867184       2
Co    -0.05738748   -0.03854614    3.63089835       3
Co    -3.60733626    0.00728856    0.09315105       4
Ni    -0.01886708   -3.55264858    0.06381900       5
Ni    -0.03146312    3.52264130    0.03142680       6
Cr    -0.11633540   -1.80097621   -1.76228739       7
Cr    -0.06480431    1.79027442   -1.80463525       8
Cr     1.83888213   -1.88799228    0.06090832       9
Cr     1.80985396    1.91530889    0.06441490      10
Ni    -1.82696233    0.01713321   -1.70567348      11
Ni     1.73614719    0.00279890    1.78824277      12
Cr    -1.76497784   -0.08356142    1.82240023      13
Cr    -1.75640841   -1.69955851    0.02976513      14
Cr    -1.76742346    1.68215115    0.08013504      15
Co    -0.03908290   -1.71427370    1.73267068      16
Ni    -0.03028943    1.73296440    1.80725056      17
Co     0.97175942   -0.00892828   -0.87702762      18
          18
Lattice="  24.8920   0.0000   0.0000   0.0000  24.8920   0.0000   0.0000   0.0000  24.8920 " ConfE="      -5924.8512" DelE="          0.1008"
Co    -0.03823321    0.00687613   -3.47622157       1
Ni     3.55977237   -0.01811205    0.06503621       2
Co    -0.07067580   -0.03950258    3.65892747       3
Co    -3.61836706    0.00233611    0.09528905       4
Ni    -0.01669835   -3.53263761    0.05614726       5
Ni    -0.01822430    3.50296466    0.04165240       6
Cr    -0.05988014   -1.66091810   -1.69505925       7
Cr    -0.04980160    1.67219258   -1.73397167       8
Cr     1.71224648   -1.68812851    0.01142185       9
Cr     1.68308451    1.68252608    0.03468179      10
Ni    -1.84304128    0.01146524   -1.70439670      11
Ni     1.73190268   -0.01193104    1.82557454      12
Cr    -1.80602532   -0.08761411    1.85365081      13
Cr    -1.76500216   -1.70165907    0.04134594      14
Cr    -1.77765167    1.67911606    0.10114309      15
Co    -0.06572593   -1.70438682    1.74541964      16
Ni    -0.04858090    1.71984914    1.83031585      17
Co     1.68360681    0.00934595   -1.65358846      18
