          18
Lattice="  24.8920   0.0000   0.0000   0.0000  24.8920   0.0000   0.0000   0.0000  24.8920 " ConfE="      -5949.8161" DelE="          0.0000"
Ni    -3.48767655    0.05481796    0.03493063       1
Ni     0.02154075    0.02582261    3.57755758       2
Ni     0.01404807    0.03134813   -3.47859838       3
Ni     0.03206527   -3.51454131    0.04461863       4
Ni     3.58192733    0.01966516    0.04192263       5
Cr    -0.01769199    3.61393676    0.09349437       6
Ni    -1.74368556    0.04945946    1.77394803       7
Ni     0.00605620    1.82486644   -1.66687587       8
Ni    -1.73936252   -1.77903908    0.04946636       9
Co    -1.72071416    0.09440179   -1.67265587      10
Cr    -0.02670894    1.78745062    1.71336809      11
Ni     1.81474244    1.81065965    0.03814823      12
Ni     1.80375093    0.03945797    1.80311872      13
Ni     1.79103774   -1.77312467    0.04509493      14
Co     0.00476162   -1.70736529    1.81899060      15
Cr     1.80210162    0.03298826   -1.71783336      16
Co     0.03436654   -1.71547407   -1.70001907      17
Cr     0.00000000    0.00000000    0.00000000      18
          18
Lattice="  24.8920   0.0000   0.0000   0.0000  24.8920   0.0000   0.0000   0.0000  24.8920 " ConfE="      -5948.9544" DelE="          0.8617"
Ni    -3.45284322    0.03771723    0.04915229       1
Ni     0.02963086   -0.00238556    3.63596548       2
Ni     0.02327856    0.03374755   -3.55260919       3
Ni     0.02411651   -3.50899506    0.04124955       4
Ni     3.55147486    0.03198175    0.03360008       5
Cr    -0.01108803    3.64911076    0.06800091       6
Ni    -1.80180021   -0.05471795    1.94836637       7
Ni     0.04723038    1.84815977   -1.80994321       8
Ni    -1.69365614   -1.70345873    0.05678594       9
Co    -1.72509490    0.04389615   -1.79080701      10
Cr     0.02822335    1.77147602    1.89642315      11
Ni     1.69300092    1.77499469    0.03363893      12
Ni     1.75784107    0.03359047    1.79328274      13
Ni     1.74416510   -1.73920939    0.04718725      14
Co    -0.00378417   -1.69090417    1.83097908      15
Cr     1.70168687    0.00659594   -1.69349343      16
Co     0.05410701   -1.63670751   -1.69068225      17
Cr    -0.97698168    1.00659616    0.08095427      18
          18
Lattice="  24.8920   0.0000   0.0000   0.0000  24.8920   0.0000   0.0000   0.0000  24.8920 " ConfE="      -5949.6486" DelE="          0.1675"
Ni    -3.51357840    0.02211478    0.04744261       1
Ni     0.02988531    0.00396997    3.61732871       2
Ni     0.02023587    0.02336515   -3.51810295       3
Ni     0.03307519   -3.52054483    0.04181974       4
Ni     3.58673494    0.01655534    0.04045197       5
Cr     0.02135128    3.64778491    0.06857111       6
Ni    -1.71506033    0.02126702    1.78515200       7
Ni     0.04534103    1.77850505   -1.69017979       8
Ni    -1.70334337   -1.74332060    0.05057988       9
Co    -1.70228310    0.07371744   -1.67269933      10
Cr     0.03572365    1.76129210    1.78954207      11
Ni     1.76190735    1.76559265    0.03724103      12
Ni     1.78766115    0.02163318    1.79945703      13
Ni     1.76340756   -1.74789947    0.04418453      14
Co     0.00682869   -1.71704844    1.83786465      15
Cr     1.80347210   -0.01250772   -1.74122877      16
Co     0.06577864   -1.67457101   -1.69639094      17
Cr    -1.67984629    1.78698783    0.05735880      18
