          18
Lattice="  24.8920   0.0000   0.0000   0.0000  24.8920   0.0000   0.0000   0.0000  24.8920 " ConfE="      -5923.6772" DelE="          0.0000"
Cr     0.02363291   -0.01981234    3.48078690       1
Ni    -3.56846662    0.02318831   -0.04723376       2
Ni     3.51097830    0.05867507   -0.02309355       3
Ni    -0.06102926    0.09726984   -3.64994899       4
Cr     0.08608971   -3.43578502    0.01274221       5
Ni    -0.03538895    3.61250259   -0.05180273       6
Ni    -1.75395696   -0.00424814    1.73951488       7
Ni    -1.79101261    1.80717732   -0.05573589       8
Ni    -0.02136110    1.83934279    1.74542275       9
Cr    -1.73621117   -1.79525431   -0.00982145      10
Co     1.75623417   -1.69409516   -0.03401192      11
Ni    -0.01867610   -1.69177232   -1.84653959      12
Cr     1.74745666    0.01757403    1.80822888      13
Ni     1.74486783    1.82257419   -0.03551448      14
Ni    -1.79174269    0.05597401   -1.83045342      15
Cr     1.77851431    0.11727945   -1.88329577      16
Cr    -0.01755922    1.81721957   -1.86771718      17
Ni     0.00000000    0.00000000    0.00000000      18
          18
Lattice="  24.8920   0.0000   0.0000   0.0000  24.8920   0.0000   0.0000   0.0000  24.8920 " ConfE="      -5923.2796" DelE="          0.3976"
Cr     0.01398060   -0.03831687    3.42676713       1
Ni    -3.62268229    0.04172036   -0.06055658       2
Ni     3.57120320    0.09209823   -0.02486276       3
Ni    -0.06809585    0.08741298   -3.65339241       4
Cr     0.07606912   -3.37399560    0.03271875       5
Ni    -0.03355169    3.60445893   -0.04373348       6
Ni    -1.89124017    0.04904148    1.76544047       7
Ni    -1.79397736    1.78955189   -0.05791434       8
Ni    -0.03083943    1.78231267    1.72199174       9
Cr    -1.91189340   -1.79747843   -0.02349798      10
Co     1.98543779   -1.74194663   -0.09294732      11
Ni    -0.01920434   -1.66273450   -1.78663966      12
Cr     1.86405976    0.04027616    1.82983812      13
Ni     1.72458614    1.78018215   -0.02169431      14
Ni    -1.80317960    0.05237545   -1.81733985      15
Cr     1.73636585    0.10430784   -1.82658917      16
Cr    -0.01351680    1.75757390   -1.82255197      17
Ni     0.02998999   -0.56929319    0.51551514      18
          18
Lattice="  24.8920   0.0000   0.0000   0.0000  24.8920   0.0000   0.0000   0.0000  24.8920 " ConfE="      -5923.3638" DelE="          0.3134"
Cr     0.00761427   -0.04862015    3.42756190       1
Ni    -3.64424195    0.05908063   -0.06924845       2
Ni     3.58977783    0.10049295   -0.03177477       3
Ni    -0.06588471    0.08204344   -3.63698343       4
Cr     0.08968547   -3.42993803    0.02723196       5
Ni    -0.03198193    3.59890018   -0.04480368       6
Ni    -1.92288500    0.07633788    1.75799336       7
Ni    -1.79838308    1.79344282   -0.06571577       8
Ni    -0.03048780    1.75242376    1.70392248       9
Cr    -1.97289998   -1.78776121   -0.02867921      10
Co     2.00321636   -1.72875832   -0.11054490      11
Ni    -0.02099530   -1.64403023   -1.72494302      12
Cr     1.87839092    0.06119855    1.80857160      13
Ni     1.74000532    1.79080477   -0.03263709      14
Ni    -1.80679954    0.05557828   -1.80888854      15
Cr     1.75145260    0.11196418   -1.83115138      16
Cr    -0.00548993    1.74273702   -1.80885042      17
Ni     0.00817818   -0.90674287    0.83522470      18
