          18
Lattice="  24.8920   0.0000   0.0000   0.0000  24.8920   0.0000   0.0000   0.0000  24.8920 " ConfE="      -5948.8926" DelE="          0.0000"
Ni     3.47319140    0.00780038   -0.01539929       1
Ni    -0.03905289   -0.01383357    3.56106666       2
Co     0.01583733    3.48869489   -0.01556253       3
Co    -0.05271412   -3.58497767    0.02724175       4
Cr     0.01084042   -0.01738136   -3.51934924       5
Co    -3.58842089    0.00453226    0.03292630       6
Ni     1.72141963   -0.00188521    1.76494098       7
Ni     1.75247491   -1.80088554    0.02562372       8
Co     1.68921780    0.07125829   -1.78237185       9
Ni    -1.77868292   -1.82775150    0.02793544      10
Cr     0.02853845    1.82134274   -1.72396555      11
Ni    -1.80167903    1.74496407   -0.00018150      12
Ni    -1.79770876   -0.01803048    1.79554350      13
Cr    -0.01538395    1.79282942    1.72365461      14
Co    -0.05217524   -1.79821996   -1.77295974      15
Co    -1.79422842   -0.01613370   -1.78277500      16
Co    -0.04037767   -1.84088991    1.79519092      17
Ni     0.00000000    0.00000000    0.00000000      18
          18
Lattice="  24.8920   0.0000   0.0000   0.0000  24.8920   0.0000   0.0000   0.0000  24.8920 " ConfE="      -5948.3501" DelE="          0.5425"
Ni     3.40714297    0.04151971   -0.02077938       1
Ni    -0.04088456   -0.05357997    3.62560452       2
Co     0.01400894    3.49089023    0.02369851       3
Co    -0.05345187   -3.58644703    0.02529360       4
Cr     0.00444945   -0.02615297   -3.60744470       5
Co    -3.58379665    0.01803362    0.04129597       6
Ni     1.75958642   -0.07241330    1.90340929       7
Ni     1.69920428   -1.72479763    0.01273937       8
Co     1.71182355   -0.00052220   -1.95887529       9
Ni    -1.73784414   -1.77204372    0.02836274      10
Cr    -0.06379876    1.88335275   -1.92860897      11
Ni    -1.70736968    1.69202780    0.02304725      12
Ni    -1.78029454   -0.02531450    1.81885988      13
Cr    -0.07823315    1.79962904    1.98768079      14
Co    -0.04966948   -1.75830893   -1.77343998      15
Co    -1.74742198   -0.00586011   -1.78020989      16
Co    -0.03598365   -1.81528796    1.79350601      17
Ni     0.76488369    0.87689702   -0.00034275      18
          18
Lattice="  24.8920   0.0000   0.0000   0.0000  24.8920   0.0000   0.0000   0.0000  24.8920 " ConfE="      -5948.8382" DelE="          0.0544"
Ni     3.49577333   -0.00927206   -0.01490609       1
Ni    -0.04075743   -0.03498818    3.59501877       2
Co    -0.04041737    3.56848249    0.01783014       3
Co    -0.05235491   -3.59860411    0.02778398       4
Cr    -0.00376049   -0.03281068   -3.59789569       5
Co    -3.59581812    0.00735227    0.03274917       6
Ni     1.67263363   -0.03158231    1.76376671       7
Ni     1.72256308   -1.76321464    0.01882475       8
Co     1.62434949    0.04173948   -1.78082371       9
Ni    -1.75721783   -1.80844513    0.02375368      10
Cr    -0.02756044    1.78525395   -1.79075844      11
Ni    -1.72428583    1.69434155   -0.00386348      12
Ni    -1.77084093   -0.03597174    1.78183823      13
Cr    -0.06684444    1.75553349    1.79170332      14
Co    -0.05666365   -1.76528331   -1.75283537      15
Co    -1.76370849   -0.02772354   -1.77761218      16
Co    -0.04595062   -1.83821832    1.78527781      17
Ni     1.66957903    1.73146310    0.01297460      18
