          18
Lattice="  24.8920   0.0000   0.0000   0.0000  24.8920   0.0000   0.0000   0.0000  24.8920 " ConfE="      -5923.7785" DelE="          0.0000"
Ni    -0.00382629    0.04927007    3.46795776       1
Ni    -0.03433665    3.54669915   -0.03392890       2
Ni    -0.00118976   -0.00706674   -3.57024513       3
Cr    -0.02268394   -3.56684619   -0.03352703       4
Cr     3.50488666    0.00606742    0.01179382       5
Ni    -3.54977836   -0.01583017   -0.01597616       6
Cr     1.80355326    0.03155303    1.78756854       7
Ni    -1.76400063    0.02850606    1.75904615       8
Ni     1.71599882    1.77831974    0.02868811       9
Ni    -1.77087164    1.78853388   -0.03161537      10
Co     0.03413819   -1.81103080    1.76126782      11
Cr     0.00683458    1.76211135   -1.83795552      12
Cr    -0.00551993   -1.81832238   -1.80640997      13
Ni     1.76855192   -1.77721013   -0.00908092      14
Ni    -1.78031690   -1.76009793   -0.02350659      15
Co     1.76673497   -0.00759326   -1.78762453      16
Co    -1.76706726    0.01686977   -1.79717518      17
Ni     0.00000000    0.00000000    0.00000000      18
          18
Lattice="  24.8920   0.0000   0.0000   0.0000  24.8920   0.0000   0.0000   0.0000  24.8920 " ConfE="      -5919.8375" DelE="          3.9410"
Ni    -0.50009547    0.12352140    3.22388081       1
Ni    -0.04073741    3.61347394   -0.08248469       2
Ni    -0.01324601    0.00072204   -3.58576717       3
Cr    -0.08905744   -3.63898632   -0.10579844       4
Cr     3.49659197   -0.01474238    0.00014019       5
Ni    -3.49418385   -0.00033013    0.01162941       6
Cr     1.66101350   -0.47991425    3.41395125       7
Ni    -1.05444962    0.14401479    0.91823714       8
Ni     1.75120925    1.91968444   -0.13641728       9
Ni    -1.86530366    1.99866564   -0.14611918      10
Co     0.05733975   -1.91717267    1.81288512      11
Cr    -0.01045366    1.67132586   -1.77830025      12
Cr    -0.02949918   -1.71292890   -1.72378959      13
Ni     1.71730264   -1.80565649    0.01841505      14
Ni    -1.79134377   -1.86231024   -0.04672753      15
Co     1.70010876   -0.00356272   -1.75394867      16
Co    -1.71768412    0.03975082   -1.73937781      17
Ni     1.30722070    0.24043426    1.32173717      18
          18
Lattice="  24.8920   0.0000   0.0000   0.0000  24.8920   0.0000   0.0000   0.0000  24.8920 " ConfE="      -5924.0382" DelE="         -0.2596"
Ni    -1.73263301    0.03226606    1.77686749       1
Ni    -0.03358887    3.54789964   -0.04174029       2
Ni    -0.00482021   -0.00715012   -3.57656305       3
Cr    -0.02391226   -3.55922676   -0.02952524       4
Cr     3.50749352    0.00624811    0.00290336       5
Ni    -3.54324759   -0.01439541   -0.01549909       6
Cr     0.07381779    0.03774810    3.53392759       7
Ni    -0.01585241   -0.00035724   -0.02553639       8
Ni     1.71872789    1.78580977    0.00288443       9
Ni    -1.76697141    1.78756895   -0.03477726      10
Co     0.02590879   -1.80373335    1.77455374      11
Cr     0.00211441    1.76859633   -1.85196250      12
Cr    -0.01420824   -1.82186317   -1.81453684      13
Ni     1.76252628   -1.76908111   -0.01279729      14
Ni    -1.77828424   -1.75709232   -0.02571299      15
Co     1.76270605   -0.00749998   -1.80331063      16
Co    -1.77010689    0.01839150   -1.80718480      17
Ni     1.74531285    0.05280493    1.75331451      18
