          18
Lattice="  24.8920   0.0000   0.0000   0.0000  24.8920   0.0000   0.0000   0.0000  24.8920 " ConfE="      -5940.1344" DelE="          0.0000"
Ni    -3.50399629   -0.00558948    0.02537002       1
Ni     0.02973840   -0.02685665   -3.53727221       2
Ni     3.60313130   -0.02994695   -0.00757288       3
Ni     0.01637673   -3.55446347   -0.00331818       4
Co    -0.01700932    3.37972621   -0.01631663       5
Co     0.03088654   -0.00138954    3.57842458       6
Ni    -1.74791161   -0.00065683    1.76954274       7
Cr     0.00002026    1.68822700    1.80000161       8
Cr    -1.78759074    0.05022030   -1.77662621       9
Cr    -0.07256878    1.71805548   -1.71697083      10
Ni     1.77361816   -0.01659047   -1.78583923      11
Ni     1.78763535   -1.80184628   -0.01274768      12
Co     0.01300902   -1.77775760    1.82191109      13
Co     1.81628932   -0.00350665    1.80155331      14
Co    -1.75886898   -1.80734817   -0.01081410      15
Co     1.81751924    1.74546498    0.04687853      16
Co    -0.03164402   -1.79130655   -1.79476841      17
Ni     0.00000000    0.00000000    0.00000000      18
          18
Lattice="  24.8920   0.0000   0.0000   0.0000  24.8920   0.0000   0.0000   0.0000  24.8920 " ConfE="      -5939.1804" DelE="          0.9540"
Ni    -3.46922452   -0.01525720    0.01284853       1
Ni     0.07985842   -0.05585379   -3.52770958       2
Ni     3.53595319   -0.02138667   -0.02872105       3
Ni     0.00279009   -3.59828846    0.00844743       4
Co    -0.00247421    3.42164418   -0.00486899       5
Co     0.03972378   -0.03100367    3.62465407       6
Ni    -1.77633282   -0.09372971    1.91521414       7
Cr     0.08155670    1.65994195    1.96516904       8
Cr    -1.80483048   -0.08900137   -1.92963584       9
Cr     0.03411858    1.90471509   -1.92334048      10
Ni     1.07655631    0.00935952   -1.20310157      11
Ni     1.79358722   -1.88446338    0.01417073      12
Co     0.02128333   -1.75049773    1.79211112      13
Co     1.75317788    0.00475328    1.76192956      14
Co    -1.68963227   -1.74627132   -0.01547670      15
Co     1.81375820    1.84745438    0.10245890      16
Co    -0.08757659   -1.95590106   -1.85456174      17
Ni    -1.06309690    1.04238178   -0.01765882      18
          18
Lattice="  24.8920   0.0000   0.0000   0.0000  24.8920   0.0000   0.0000   0.0000  24.8920 " ConfE="      -5940.3607" DelE="         -0.2263"
Ni    -3.52871905   -0.03292624    0.01650180       1
Ni     0.09823321   -0.03949892   -3.50849410       2
Ni     3.58322014   -0.02415777   -0.01875866       3
Ni     0.02309178   -3.55246805   -0.00816545       4
Co     0.03524160    3.46226033   -0.01438170       5
Co     0.03520929   -0.00978584    3.59241287       6
Ni    -1.73747844   -0.02949777    1.78613262       7
Cr     0.05040488    1.67516763    1.82523158       8
Cr    -1.78528798   -0.01356860   -1.81846115       9
Cr     0.03842601    1.67283908   -1.79052961      10
Ni     0.06581485   -0.02387599   -0.04067808      11
Ni     1.80156398   -1.78638970   -0.03794315      12
Co     0.03064762   -1.77929550    1.81880196      13
Co     1.82313819   -0.00173395    1.81924513      14
Co    -1.74325833   -1.78737516   -0.01781174      15
Co     1.79021222    1.73682497    0.01187897      16
Co     0.01760587   -1.78499106   -1.81131583      17
Ni    -1.74637893    1.73414101   -0.01812533      18
