          18
Lattice="  24.8920   0.0000   0.0000   0.0000  24.8920   0.0000   0.0000   0.0000  24.8920 " ConfE="      -5934.3269" DelE="          0.0000"
Ni    -0.04403279   -0.05907125    3.50126322       1
Ni     3.45399218   -0.08093499    0.04464597       2
Cr    -0.03034375   -0.15987441   -3.52240702       3
Ni    -3.60356207   -0.06515076   -0.00619088       4
Co    -0.02268507   -3.65485316   -0.01233361       5
Ni    -0.05294134    3.51630414    0.03141412       6
Ni    -0.05148634   -1.82091338    1.73793848       7
Cr     0.02937628    1.64712802    1.68855398       8
Ni     1.72255290   -1.82757676    0.03298391       9
Cr     1.68638657    1.71149345    0.00420484      10
Ni    -1.85479014   -0.04611651    1.76063080      11
Co     1.68041159   -0.07467456   -1.79146058      12
Co    -1.75211801   -0.08648035   -1.80230898      13
Ni    -1.82581194   -1.83787643   -0.00054975      14
Co    -1.78100566    1.72159906   -0.01663730      15
Cr     0.00265749   -1.93062170   -1.71299439      16
Cr    -0.06520087    1.78602511   -1.75198170      17
Co     0.00000000    0.00000000    0.00000000      18
          18
Lattice="  24.8920   0.0000   0.0000   0.0000  24.8920   0.0000   0.0000   0.0000  24.8920 " ConfE="      -5933.6686" DelE="          0.6583"
Ni    -0.03106706   -0.05776958    3.48101439       1
Ni     3.45910127   -0.08836035    0.04534155       2
Cr    -0.02730428   -0.15334658   -3.55885285       3
Ni    -3.61457066   -0.07267976    0.00975425       4
Co    -0.02927466   -3.71117786   -0.02145298       5
Ni    -0.05685223    3.54012062    0.01402243       6
Ni    -0.05710922   -1.89565396    1.73735455       7
Cr    -0.09677824    1.80363810    1.72524929       8
Ni     1.76038629   -1.98003804   -0.00277992       9
Cr     1.83210899    1.90527925   -0.09984313      10
Ni    -1.78510573   -0.04580886    1.72586948      11
Co     1.67506181   -0.09309515   -1.72399374      12
Co    -1.72770496   -0.08546614   -1.75665183      13
Ni    -1.78686763   -1.82696675    0.00443504      14
Co    -1.76892151    1.71172874   -0.00659065      15
Cr     0.01603102   -1.81595319   -1.67618823      16
Cr    -0.03683190    1.53279985   -1.51307713      17
Co     0.93164049    0.09070571    0.78621503      18
          18
Lattice="  24.8920   0.0000   0.0000   0.0000  24.8920   0.0000   0.0000   0.0000  24.8920 " ConfE="      -5934.2385" DelE="          0.0883"
Ni    -0.06345497   -0.05556786    3.54209604       1
Ni     3.49741111   -0.07737553    0.00969630       2
Cr    -0.03276796   -0.15951621   -3.56977172       3
Ni    -3.60954267   -0.06972709   -0.00077726       4
Co    -0.02437360   -3.67635944   -0.02222044       5
Ni    -0.05282746    3.53819443    0.02400383       6
Ni    -0.06032567   -1.81771199    1.71715445       7
Cr    -0.00329156    1.63936848    1.63558152       8
Ni     1.69466021   -1.83198026   -0.00200662       9
Cr     1.68109231    1.71086348   -0.02408557      10
Ni    -1.81019358   -0.04816840    1.74088031      11
Co     1.62932747   -0.06395369   -1.72849878      12
Co    -1.70030262   -0.08932531   -1.78856543      13
Ni    -1.79425889   -1.82395449   -0.01639862      14
Co    -1.72328685    1.68491326   -0.01952156      15
Cr    -0.00333444   -1.90136453   -1.74239968      16
Cr    -0.07745106    1.72060372   -1.68718008      17
Co     1.69968447   -0.02922304    1.75061746      18
