          18
Lattice="  24.8920   0.0000   0.0000   0.0000  24.8920   0.0000   0.0000   0.0000  24.8920 " ConfE="      -5941.4766" DelE="          0.0000"
Ni     0.03809465    0.07676146   -3.55688174       1
Co    -3.41621772    0.06153570    0.03407640       2
Cr     0.03155533   -3.45337116   -0.00538769       3
Ni     3.60526223    0.07232754    0.03694250       4
Ni     0.00006652    0.09359528    3.58291547       5
Cr     0.05001702    3.67786888   -0.05287616       6
Ni    -1.72578698    0.07187158   -1.76232797       7
Cr     0.04059853   -1.72167160   -1.76997212       8
Cr    -1.73328586    0.03009832    1.72560139       9
Cr     0.01767697   -1.71479333    1.75320284      10
Cr     0.08980839    1.91742650   -1.82503706      11
Cr    -1.70452409    1.88845386    0.02530698      12
Co     1.77646144    1.84901347    0.03673061      13
Co    -0.00207646    1.87656168    1.75638373      14
Cr     1.83780573    0.11015607   -1.77318075      15
Co     1.83816690   -1.71433112   -0.01444843      16
Cr     1.78701438    0.06077476    1.78570611      17
Cr     0.00000000    0.00000000    0.00000000      18
          18
Lattice="  24.8920   0.0000   0.0000   0.0000  24.8920   0.0000   0.0000   0.0000  24.8920 " ConfE="      -5941.0473" DelE="          0.4293"
Ni     0.04462596    0.09313824   -3.59724000       1
Co    -3.38087748    0.07023147    0.02287051       2
Cr     0.05557437   -3.59230317    0.00679278       3
Ni     3.58285963    0.05340453    0.04312573       4
Ni     0.01252840    0.12375520    3.60933684       5
Cr     0.03278040    3.68831935   -0.05889870       6
Ni    -1.69533119    0.10803937   -1.82569354       7
Cr     0.09246461   -1.75628929   -1.90436138       8
Cr    -1.73307954    0.21026710    1.83878331       9
Cr     0.16257174   -1.82481994    2.03700442      10
Cr     0.07651257    1.92159876   -1.81178184      11
Cr    -1.66039378    1.85140655   -0.00460589      12
Co     1.73311955    1.84240433    0.03376085      13
Co    -0.01559299    1.86993339    1.72796019      14
Cr     1.64446471    0.08718463   -1.58723459      15
Co     1.71453836   -1.73239227    0.00374637      16
Cr     1.60800335    0.03847844    1.63316552      17
Cr    -0.89465896   -1.00019391    0.13753886      18
          18
Lattice="  24.8920   0.0000   0.0000   0.0000  24.8920   0.0000   0.0000   0.0000  24.8920 " ConfE="      -5941.5267" DelE="         -0.0500"
Ni     0.05115243    0.08986748   -3.57533630       1
Co    -3.47365168    0.08273327    0.02198225       2
Cr     0.09403740   -3.57367626    0.00021789       3
Ni     3.60790472    0.07638904    0.04881525       4
Ni     0.01710410    0.10636535    3.61290653       5
Cr     0.05567245    3.69135833   -0.05106273       6
Ni    -1.66821509    0.09989735   -1.73691426       7
Cr     0.10729709   -1.68296327   -1.77058337       8
Cr    -1.62405730    0.09359974    1.71318842       9
Cr     0.10101592   -1.68636744    1.75648648      10
Cr     0.09752799    1.88989586   -1.77594365      11
Cr    -1.66280595    1.85326948    0.02607348      12
Co     1.74845258    1.83576461    0.03497118      13
Co    -0.00028821    1.86802931    1.73457464      14
Cr     1.78884201    0.12500637   -1.69625806      15
Co     1.75694031   -1.67967839   -0.01527372      16
Cr     1.71966042    0.09246155    1.72894607      17
Cr    -1.62274902   -1.67301433    0.00595160      18
