          18
Lattice="  24.8920   0.0000   0.0000   0.0000  24.8920   0.0000   0.0000   0.0000  24.8920 " ConfE="      -5940.7458" DelE="          0.0000"
Co    -3.53903787    0.06991757   -0.02189185       1
Cr    -0.08106937   -3.46450943   -0.01667694       2
Ni    -0.02710932    0.05935204   -3.55355198       3
Cr     0.04912036    3.67232268   -0.01630773       4
Co     3.55436408    0.06089255    0.02635989       5
Cr     0.00900085   -0.07200082    3.55319532       6
Cr    -1.76692011    0.01357438   -1.68064557       7
Co    -0.03803085   -1.72129741   -1.73395012       8
Cr    -1.76164216   -0.03395149    1.67246171       9
Co    -0.03981972   -1.75275672    1.72625898      10
Ni    -1.75402448    1.88734027    0.00884648      11
Ni    -0.02111813    1.85059265    1.78785027      12
Co    -0.01911650    1.84859916   -1.76653263      13
Cr     1.75459240    0.06390022   -1.74852228      14
Co     1.79338250   -1.73446516    0.03563729      15
Co     1.76771075    1.84265053   -0.00916460      16
Cr     1.77562743    0.06040628    1.79167227      17
Cr     0.00000000    0.00000000    0.00000000      18
          18
Lattice="  24.8920   0.0000   0.0000   0.0000  24.8920   0.0000   0.0000   0.0000  24.8920 " ConfE="      -5940.2590" DelE="          0.4869"
Co    -3.45307980    0.09062354   -0.02282229       1
Cr    -0.10670710   -3.46232280   -0.02108349       2
Ni    -0.01281509    0.05593980   -3.62308655       3
Cr     0.02726788    3.66754921   -0.00580789       4
Co     3.54930080    0.05055690    0.01036787       5
Cr     0.08939690   -0.06176629    3.63020811       6
Cr    -1.76236539    0.16129404   -1.92549506       7
Co    -0.03985080   -1.73928320   -1.84162799       8
Cr    -1.78803594    0.07672796    1.95613312       9
Co    -0.02802776   -1.78189549    1.84130402      10
Ni    -1.74286348    1.85384138    0.01500331      11
Ni    -0.04114878    1.81066479    1.77937017      12
Co    -0.04054225    1.80244722   -1.75246303      13
Cr     1.57251397    0.09147181   -1.62318708      14
Co     1.69551113   -1.70273175    0.02962560      15
Co     1.71691781    1.81045856   -0.00709693      16
Cr     1.66656168    0.04867182    1.66437697      17
Cr    -0.70561729   -0.54104594    0.01359269      18
          18
Lattice="  24.8920   0.0000   0.0000   0.0000  24.8920   0.0000   0.0000   0.0000  24.8920 " ConfE="      -5940.3566" DelE="          0.3892"
Co    -3.46015017    0.09493768   -0.00848865       1
Cr    -0.10620544   -3.55086071   -0.04187653       2
Ni    -0.01163755    0.05974572   -3.63763629       3
Cr     0.02206711    3.69622732   -0.01151795       4
Co     3.48702885    0.03842460    0.02216491       5
Cr     0.12987074   -0.03560941    3.64884243       6
Cr    -1.70667429    0.18646408   -1.90698618       7
Co    -0.03049385   -1.77882598   -1.89672045       8
Cr    -1.65402283    0.09449574    1.93270427       9
Co    -0.01580289   -1.84125218    1.86590142      10
Ni    -1.68712751    1.80739214    0.02517544      11
Ni    -0.02290440    1.92101391    1.80947866      12
Co    -0.03892398    1.87065100   -1.77255580      13
Cr     1.40797656    0.10548124   -1.53160689      14
Co     1.64319403   -1.74163419    0.01035032      15
Co     1.72367007    1.86086394    0.00278095      16
Cr     1.43773463    0.03055676    1.55281727      17
Cr    -0.98066894   -0.90419527   -0.01794099      18
