          18
Lattice="  24.8920   0.0000   0.0000   0.0000  24.8920   0.0000   0.0000   0.0000  24.8920 " ConfE="      -5933.0453" DelE="          0.0000"
Ni    -0.02973188   -0.03276758    3.54224723       1
Ni     3.53249184   -0.07464247   -0.02839183       2
Cr    -0.07149075    3.44820797   -0.01392017       3
Cr    -3.49395572   -0.09053038   -0.01440269       4
Cr     0.05091042   -3.58745851   -0.02963032       5
Co    -0.01046529   -0.10305866   -3.63740895       6
Co    -1.74512045    0.01814880    1.75822312       7
Ni    -0.01672059   -1.84303629   -1.82297641       8
Co    -1.78298132    1.69973817   -0.05211157       9
Cr     1.70070427   -0.03503057    1.76069400      10
Cr     1.70085075    1.67796784   -0.02252596      11
Cr    -0.08529979   -1.80632294    1.73958877      12
Cr    -1.76290198   -1.77989961   -0.06169791      13
Co    -1.76366048   -0.05028275   -1.83719559      14
Cr    -0.01531356    1.70218056   -1.90830504      15
Co     1.74884295   -1.83474986   -0.02879731      16
Cr     1.74879211   -0.08693712   -1.85251986      17
Co     0.00000000    0.00000000    0.00000000      18
          18
Lattice="  24.8920   0.0000   0.0000   0.0000  24.8920   0.0000   0.0000   0.0000  24.8920 " ConfE="      -5932.4279" DelE="          0.6175"
Ni    -0.03467405   -0.03007821    3.52315639       1
Ni     3.59536234   -0.08126308   -0.04036221       2
Cr    -0.07127188    3.46339568   -0.03299508       3
Cr    -3.59870364   -0.20827561   -0.05485905       4
Cr     0.03599746   -3.58631840   -0.01950624       5
Co    -0.00926269   -0.08797775   -3.63378518       6
Co    -1.89262521   -0.03291531    1.76136507       7
Ni    -0.01062001   -1.82492567   -1.80668759       8
Co    -1.97911738    1.65900132   -0.12084578       9
Cr     1.81363093   -0.08634611    1.74967505      10
Cr     1.85788467    1.67626856   -0.08565076      11
Cr    -0.06913123   -1.65579206    1.65303771      12
Cr    -1.71863121   -1.69380311   -0.06547185      13
Co    -1.74427772   -0.05920446   -1.81364447      14
Cr    -0.01869632    1.63341388   -1.72527836      15
Co     1.72781485   -1.77309694   -0.03145649      16
Cr     1.72450639   -0.07657798   -1.79653169      17
Co     0.02086268    1.15255532    1.09222518      18
          18
Lattice="  24.8920   0.0000   0.0000   0.0000  24.8920   0.0000   0.0000   0.0000  24.8920 " ConfE="      -5932.7740" DelE="          0.2713"
Ni    -0.01960473   -0.06210744    3.57420574       1
Ni     3.55925276   -0.07909841   -0.03260264       2
Cr    -0.06409675    3.51341523   -0.03534977       3
Cr    -3.53493887   -0.12812463   -0.02841907       4
Cr     0.03434533   -3.61228285   -0.03308282       5
Co    -0.01208577   -0.10119478   -3.64250376       6
Co    -1.75178187   -0.04601924    1.72418224       7
Ni    -0.01794557   -1.82976547   -1.80374014       8
Co    -1.77484815    1.64807658   -0.08054074       9
Cr     1.70233491   -0.07798332    1.71044476      10
Cr     1.65609344    1.61083972   -0.04792647      11
Cr    -0.08244850   -1.74956478    1.68859937      12
Cr    -1.73378982   -1.74554868   -0.07195554      13
Co    -1.74521581   -0.06106714   -1.81630040      14
Cr    -0.03740042    1.66016127   -1.82091947      15
Co     1.71998136   -1.79879160   -0.02941585      16
Cr     1.71933889   -0.09056110   -1.81618849      17
Co    -0.00509201    1.63387116    1.68485682      18
