          18
Lattice="  24.8920   0.0000   0.0000   0.0000  24.8920   0.0000   0.0000   0.0000  24.8920 " ConfE="      -5937.7942" DelE="          0.0000"
Ni     0.03815332    3.43376504   -0.00956902       1
Ni     0.02605658   -3.63655832    0.02113731       2
Cr     0.06117505    0.05413985   -3.39277374       3
Cr    -3.47852811   -0.04033437   -0.02477772       4
Cr     3.58020588   -0.12440246    0.03331889       5
Co     0.01806437   -0.08237537    3.53260451       6
Ni    -1.70462119   -0.02611690   -1.74576431       7
Co    -1.71746928    1.68566765    0.01439918       8
Co     1.81394467    1.70049753   -0.00150831       9
Co     1.77663705   -0.00973572   -1.74948033      10
Ni     0.01966454   -1.84157731    1.75522245      11
Co     0.01401950    1.69471842    1.80374342      12
Co    -1.76568789   -0.07002265    1.77185527      13
Co     1.77153791   -0.05800917    1.76377936      14
Co    -1.77803526   -1.83190776   -0.02603668      15
Co     1.78051544   -1.83819163   -0.00137305      16
Cr     0.10120463   -1.82881598   -1.68745585      17
Cr     0.00000000    0.00000000    0.00000000      18
          18
Lattice="  24.8920   0.0000   0.0000   0.0000  24.8920   0.0000   0.0000   0.0000  24.8920 " ConfE="      -5936.9696" DelE="          0.8246"
Ni     0.04551643    3.41414237   -0.01142089       1
Ni     0.02320702   -3.64619662    0.01891683       2
Cr     0.03915783    0.00522012   -3.41382349       3
Cr    -3.56820511   -0.07607783   -0.02561996       4
Cr     3.67605963   -0.14194099    0.05165799       5
Co     0.01924116   -0.07300432    3.52805953       6
Ni    -1.81661452   -0.09290999   -1.76504429       7
Co    -1.84412360    1.69641491    0.03840577       8
Co     1.96730809    1.74907730    0.03729403       9
Co     1.89504405   -0.05243848   -1.73395038      10
Ni     0.01695517   -1.78294891    1.69383251      11
Co     0.01618801    1.66841680    1.73575670      12
Co    -1.76419849   -0.04505090    1.72978604      13
Co     1.75988712   -0.03553621    1.69860000      14
Co    -1.76668469   -1.80492038   -0.03553892      15
Co     1.76570411   -1.81011422   -0.02201348      16
Cr     0.09112951   -1.78546709   -1.63980172      17
Cr     0.05466844    0.87007843   -0.76653172      18
          18
Lattice="  24.8920   0.0000   0.0000   0.0000  24.8920   0.0000   0.0000   0.0000  24.8920 " ConfE="      -5937.5187" DelE="          0.2754"
Ni     0.04063838    3.49199800    0.02275347       1
Ni     0.02872777   -3.65033146    0.02278340       2
Cr     0.06407733   -0.04969856   -3.50274490       3
Cr    -3.52930366   -0.06437015   -0.02737882       4
Cr     3.60387499   -0.12438139    0.04122574       5
Co     0.02169570   -0.08183665    3.54960316       6
Ni    -1.70145759   -0.07672393   -1.71098008       7
Co    -1.70675307    1.66720736    0.02440929       8
Co     1.81589168    1.69109149    0.00991194       9
Co     1.78028248   -0.05468430   -1.71237788      10
Ni     0.01903850   -1.80192900    1.72012312      11
Co     0.01897374    1.66989489    1.74643996      12
Co    -1.76923434   -0.05383871    1.76757035      13
Co     1.76711858   -0.05788749    1.74429487      14
Co    -1.77753527   -1.82940899   -0.01325832      15
Co     1.77018321   -1.83563110   -0.00561290      16
Cr     0.11383887   -1.76757172   -1.64356174      17
Cr     0.01115055    1.63128751   -1.68920695      18
