          18
Lattice="  24.8920   0.0000   0.0000   0.0000  24.8920   0.0000   0.0000   0.0000  24.8920 " ConfE="      -5940.4127" DelE="          0.0000"
Cr     3.48554181    0.03731191    0.03875775       1
Co    -0.01104707    0.06185595    3.52501966       2
Cr    -3.61603741    0.05578583   -0.03493656       3
Ni    -0.02218206    0.06541995   -3.57658595       4
Ni    -0.02120813   -3.46998305   -0.02024430       5
Co    -0.00282140    3.62972635   -0.00066497       6
Ni     1.74642286   -1.69058681    0.00639027       7
Ni     1.76818960    1.79165238   -0.00989145       8
Cr    -0.02936340   -1.70972300    1.77482000       9
Co     0.04030896    1.78745587    1.76832394      10
Co     1.75976623    0.06191578   -1.79959051      11
Ni    -1.81832967    0.06770576    1.74836320      12
Ni    -1.80776212    0.05200320   -1.80522587      13
Cr    -0.06834071   -1.69535192   -1.78677098      14
Co    -0.00663094    1.84113914   -1.81076988      15
Co    -1.82657027   -1.70082164   -0.01471604      16
Ni    -1.78906284    1.82747912   -0.02242211      17
Co     0.00000000    0.00000000    0.00000000      18
          18
Lattice="  24.8920   0.0000   0.0000   0.0000  24.8920   0.0000   0.0000   0.0000  24.8920 " ConfE="      -5939.9134" DelE="          0.4993"
Cr     3.35326650    0.01625208    0.08431522       1
Co     0.03015318    0.07584103    3.46576476       2
Cr    -3.61044108    0.05562045   -0.02262970       3
Ni    -0.01252822    0.06821945   -3.58494224       4
Ni    -0.02603457   -3.51619816   -0.03194622       5
Co    -0.00972100    3.69800774   -0.01746888       6
Ni     1.77197882   -1.86181672   -0.05953475       7
Ni     1.75751456    1.89640638   -0.02999434       8
Cr    -0.03419975   -1.85211054    1.83445222       9
Co     0.00236648    1.97097563    1.80001230      10
Co     1.70192940    0.05331381   -1.70890013      11
Ni    -1.76517303    0.07391907    1.73891498      12
Ni    -1.75361950    0.05625303   -1.77695944      13
Cr    -0.06109464   -1.69462621   -1.77322521      14
Co     0.00127759    1.86979135   -1.82303803      15
Co    -1.71415628   -1.65951905    0.00018605      16
Ni    -1.72966189    1.81215192   -0.01349059      17
Co     0.56566909   -0.04717370    0.72408088      18
          18
Lattice="  24.8920   0.0000   0.0000   0.0000  24.8920   0.0000   0.0000   0.0000  24.8920 " ConfE="      -5940.6897" DelE="         -0.2770"
Cr     3.52410480    0.04415107   -0.00209117       1
Co    -0.04004001    0.05870420    3.57064812       2
Cr    -3.62829522    0.05291061   -0.03471548       3
Ni    -0.02399808    0.06641742   -3.59869156       4
Ni    -0.02394167   -3.48853851   -0.02434141       5
Co    -0.01107738    3.65458848   -0.01331627       6
Ni     1.68252513   -1.66845023   -0.03324187       7
Ni     1.74823778    1.80301703   -0.03839184       8
Cr    -0.03388309   -1.73031169    1.78269778       9
Co    -0.00295435    1.82259472    1.74271634      10
Co     1.72164141    0.06607561   -1.77912434      11
Ni    -1.75998797    0.06437509    1.71550438      12
Ni    -1.78097798    0.05136317   -1.79491423      13
Cr    -0.08440492   -1.69421678   -1.79419239      14
Co    -0.00746247    1.84309103   -1.81843614      15
Co    -1.76955245   -1.67722823   -0.02449586      16
Ni    -1.77104939    1.81135757   -0.03493414      17
Co     1.70959644    0.05585611    1.74093104      18
