          18
Lattice="  24.8920   0.0000   0.0000   0.0000  24.8920   0.0000   0.0000   0.0000  24.8920 " ConfE="      -5947.9043" DelE="          0.0000"
Ni    -0.00598471    3.59471915    0.01398580       1
Co     0.02143755    0.02275235    3.54861603       2
Cr    -0.00993768   -3.51553722   -0.01938893       3
Ni     3.53831669   -0.00151878    0.01009584       4
Cr     0.02609132    0.04958058   -3.55303524       5
Cr    -3.46012916    0.00994049    0.01169807       6
Cr     1.60071490   -0.12593803    1.77861230       7
Co     1.72709392   -1.74662198    0.03877627       8
Cr    -1.53047675   -0.19046825    1.75029721       9
Co    -1.71027615   -1.78085404   -0.01651836      10
Cr     1.73641215    1.78050808    0.04602688      11
Co    -0.00803274    1.83419594    1.79896739      12
Co     0.00787570    1.79988948   -1.77454883      13
Co    -1.76488583    1.78984821    0.03764758      14
Cr     1.76907502    0.00512331   -1.77242636      15
Cr     0.03453062   -1.75467233   -1.85791061      16
Co    -1.74069328    0.01743096   -1.79397270      17
Co     0.00000000    0.00000000    0.00000000      18
          18
Lattice="  24.8920   0.0000   0.0000   0.0000  24.8920   0.0000   0.0000   0.0000  24.8920 " ConfE="      -5947.0875" DelE="          0.8169"
Ni    -0.00080942    3.59074165    0.01399436       1
Co     0.02676771   -0.00847088    3.47502565       2
Cr    -0.00249215   -3.42519427    0.03418448       3
Ni     3.63065126    0.01876236   -0.03207801       4
Cr     0.02174304    0.01279988   -3.56616707       5
Cr    -3.56280267    0.03284815   -0.03007840       6
Cr     1.92054993    0.00537474    1.80916758       7
Co     1.93254221   -1.76550717   -0.03277584       8
Cr    -1.84767100   -0.01169975    1.76509582       9
Co    -1.87316401   -1.77880259   -0.03998798      10
Cr     1.67563294    1.69225252    0.04332610      11
Co     0.00979630    1.73686990    1.74768315      12
Co     0.01352466    1.73294126   -1.73235054      13
Co    -1.75778678    1.77467565    0.02192822      14
Cr     1.74260877    0.00348706   -1.72170698      15
Cr     0.01892207   -1.67570451   -1.72117291      16
Co    -1.73230741    0.01188413   -1.75822165      17
Co     0.05829417   -0.80555851    0.87319449      18
          18
Lattice="  24.8920   0.0000   0.0000   0.0000  24.8920   0.0000   0.0000   0.0000  24.8920 " ConfE="      -5947.8769" DelE="          0.0275"
Ni    -0.00951648    3.62546030    0.00819932       1
Co     0.01361977    0.04312832    3.55724451       2
Cr    -0.00556505   -3.56017103   -0.03231607       3
Ni     3.57795113    0.00945437   -0.00962670       4
Cr     0.03199437    0.03493898   -3.57493080       5
Cr    -3.50938251    0.02441365   -0.00570041       6
Cr     1.64371139    0.01684476    1.69946107       7
Co     1.73515611   -1.69871027   -0.00033412       8
Cr    -1.59076107   -0.02362195    1.65482157       9
Co    -1.70709947   -1.73225057   -0.03947998      10
Cr     1.69631339    1.77232700    0.01956920      11
Co    -0.00625269    1.81998732    1.77141162      12
Co     0.01947416    1.77445323   -1.75206762      13
Co    -1.74415728    1.79351821    0.01528061      14
Cr     1.70964204    0.01787908   -1.69731353      15
Cr     0.02603722   -1.71602253   -1.78283650      16
Co    -1.69727168    0.02687660   -1.75931694      17
Co     0.00298141   -1.74530935    1.73106163      18
