          18
Lattice="  24.8920   0.0000   0.0000   0.0000  24.8920   0.0000   0.0000   0.0000  24.8920 " ConfE="      -5940.7968" DelE="          0.0000"
Co    -0.07032118   -0.04388795    3.48987205       1
Co     3.34393095   -0.01238743   -0.04703064       2
Ni    -0.09587477   -0.02718983   -3.61908032       3
Cr    -3.73879576    0.01657911   -0.02918125       4
Ni    -0.12011602   -3.54226954   -0.03533442       5
Co    -0.12041094    3.51808070   -0.08360168       6
Co    -0.02241476   -1.71926755    1.70241428       7
Ni    -0.07967944    1.72131132    1.73986588       8
Cr     1.69484436   -1.75000200   -0.06710631       9
Co     1.68034896    1.75340313   -0.06142212      10
Co    -1.91539016   -0.01683532    1.72453205      11
Cr     1.70274982   -0.01937573   -1.89172681      12
Ni    -1.87517107    0.00370301   -1.82519246      13
Ni    -1.89173618   -1.75087658   -0.04939807      14
Ni    -1.86593674    1.74028644   -0.03879948      15
Co    -0.06224674   -1.75787403   -1.80858100      16
Cr    -0.04562248    1.77471664   -1.80854714      17
Cr     0.00000000    0.00000000    0.00000000      18
          18
Lattice="  24.8920   0.0000   0.0000   0.0000  24.8920   0.0000   0.0000   0.0000  24.8920 " ConfE="      -5940.2501" DelE="          0.5467"
Co    -0.07524242   -0.04163602    3.44050970       1
Co     3.32469488   -0.00396115   -0.04327078       2
Ni    -0.08626494   -0.02238223   -3.61170849       3
Cr    -3.70221397    0.01503251   -0.00799779       4
Ni    -0.13639392   -3.58656902   -0.05080334       5
Co    -0.13472237    3.57483471   -0.09001061       6
Co    -0.12147391   -1.86840983    1.71893549       7
Ni    -0.15809413    1.90049896    1.79361084       8
Cr     1.68386701   -1.90132937   -0.12260076       9
Co     1.69609987    1.88504203   -0.05814483      10
Co    -1.84149538   -0.01547052    1.70868332      11
Cr     1.66993605   -0.01826397   -1.79307102      12
Ni    -1.85114099    0.00801886   -1.79554754      13
Ni    -1.87161293   -1.74673714   -0.04203256      14
Ni    -1.82554739    1.72349502   -0.02213712      15
Co    -0.04224831   -1.70267983   -1.74123632      16
Cr    -0.01040570    1.70105051   -1.70254539      17
Cr     0.80554000    0.00726805    0.90028781      18
          18
Lattice="  24.8920   0.0000   0.0000   0.0000  24.8920   0.0000   0.0000   0.0000  24.8920 " ConfE="      -5940.7629" DelE="          0.0339"
Co    -0.12212077   -0.02621389    3.52970133       1
Co     3.41395575   -0.00456972   -0.06783672       2
Ni    -0.09080764   -0.02917702   -3.63393547       3
Cr    -3.72423993    0.01631934   -0.02938505       4
Ni    -0.13183594   -3.56678025   -0.04520147       5
Co    -0.13367150    3.54832453   -0.09386550       6
Co    -0.07405949   -1.71644032    1.67245627       7
Ni    -0.12687090    1.73473340    1.72176444       8
Cr     1.63126094   -1.73700365   -0.07996491       9
Co     1.63279013    1.73772797   -0.08203418      10
Co    -1.89586842   -0.01629974    1.71620187      11
Cr     1.62615339   -0.00446201   -1.77236812      12
Ni    -1.85866544    0.00121940   -1.82287082      13
Ni    -1.88699557   -1.74348974   -0.05737997      14
Ni    -1.83611677    1.70920960   -0.05450333      15
Co    -0.05159963   -1.72120579   -1.77729543      16
Cr    -0.04744968    1.75317786   -1.79538435      17
Cr     1.57280558    0.00474933    1.68164018      18
