          18
Lattice="  24.8920   0.0000   0.0000   0.0000  24.8920   0.0000   0.0000   0.0000  24.8920 " ConfE="      -5947.9530" DelE="          0.0000"
Ni     0.00336986    3.60585468    0.04446782       1
Cr     0.04655748   -0.06022952   -3.46489748       2
Cr    -0.00566061   -3.50223800   -0.00776500       3
Ni     3.55553460   -0.00830667    0.00749498       4
Co     0.02550997    0.04299809    3.59028547       5
Cr    -3.48842476    0.00846628    0.02578424       6
Cr     1.69603301   -0.06041021   -1.71173334       7
Co     1.74164099   -1.73988506    0.02039096       8
Cr    -1.64694495   -0.01660129   -1.71430493       9
Co    -1.70508078   -1.77660980   -0.02835910      10
Cr     1.74730342    1.79211901    0.04361187      11
Co     0.01245263    1.84169684   -1.75466358      12
Co     0.00568162    1.82279594    1.81849006      13
Co    -1.75888995    1.82580709    0.04136623      14
Cr     1.72200193    0.01582839    1.78667509      15
Co     0.00514117   -1.76749724    1.82348427      16
Cr    -1.67210472   -0.02859730    1.77637307      17
Co     0.00000000    0.00000000    0.00000000      18
          18
Lattice="  24.8920   0.0000   0.0000   0.0000  24.8920   0.0000   0.0000   0.0000  24.8920 " ConfE="      -5947.3059" DelE="          0.6470"
Ni     0.00165863    3.61423577    0.03617488       1
Cr     0.04976463   -0.04332985   -3.44635395       2
Cr     0.02244520   -3.50949777   -0.04751874       3
Ni     3.62059195    0.01601170    0.04133058       4
Co     0.01001160    0.02217845    3.55890237       5
Cr    -3.60380169    0.04602354    0.07118113       6
Cr     1.90826707    0.02442689   -1.73515621       7
Co     1.90955856   -1.76561843    0.09997497       8
Cr    -1.85033543    0.08825567   -1.62067761       9
Co    -1.87992664   -1.83654565    0.03189492      10
Cr     1.70407981    1.73174333    0.03466689      11
Co     0.01779543    1.70423542   -1.68862306      12
Co    -0.00908842    1.80903314    1.79737739      13
Co    -1.75848832    1.82133711    0.04884369      14
Cr     1.63457015   -0.00818131    1.70172685      15
Co     0.00269288   -1.76057329    1.69161086      16
Cr    -1.56665286   -0.06042073    1.55940670      17
Co     0.02945308   -1.01816564   -1.05305402      18
          18
Lattice="  24.8920   0.0000   0.0000   0.0000  24.8920   0.0000   0.0000   0.0000  24.8920 " ConfE="      -5947.9438" DelE="          0.0092"
Ni     0.00186519    3.63656193    0.04449974       1
Cr     0.03871862    0.00504458   -3.51775475       2
Cr     0.00837083   -3.58040882    0.00390009       3
Ni     3.56791831   -0.00033148    0.01706364       4
Co     0.01445227    0.03715073    3.58124527       5
Cr    -3.51994045    0.02106591    0.03877133       6
Cr     1.63192035   -0.01152823   -1.62157509       7
Co     1.73690727   -1.71097779    0.03822016       8
Cr    -1.57941459    0.04021736   -1.57846342       9
Co    -1.71106329   -1.77103024   -0.00227656      10
Cr     1.71683782    1.78464341    0.05375802      11
Co     0.01213861    1.81420668   -1.71571334      12
Co    -0.00206344    1.82218326    1.80469610      13
Co    -1.74160946    1.82891351    0.05516693      14
Cr     1.62034866    0.00506465    1.69552978      15
Co     0.00935381   -1.77143127    1.77953775      16
Cr    -1.55108597   -0.04565850    1.60485512      17
Co     0.01071821   -1.77627421   -1.76499931      18
