          18
Lattice="  24.8920   0.0000   0.0000   0.0000  24.8920   0.0000   0.0000   0.0000  24.8920 " ConfE="      -5938.3178" DelE="          0.0000"
Co    -3.48548922   -0.01581959    0.01709260       1
Ni     0.02894995    0.02985080   -3.60159800       2
Co     0.02865982   -0.02054668    3.49175186       3
Cr     0.03133094    3.52199325   -0.00838822       4
Co     3.57958353    0.03002796   -0.04243331       5
Co     0.03078248   -3.54738243   -0.00910980       6
Ni    -1.73631502    1.73074576    0.02388342       7
Ni    -1.74780360    0.00964753   -1.82019098       8
Co     0.05477875    1.73769344    1.74963970       9
Ni     0.01533770   -1.75561994   -1.79351429      10
Cr    -1.72375369   -1.75107615    0.10686427      11
Co    -0.05378463   -1.76690903    1.76142149      12
Ni     1.80483349    0.02317125   -1.80557961      13
Co     0.05240650    1.83131524   -1.81397293      14
Cr     1.80099071   -0.01583120    1.75555103      15
Cr     1.77730397    1.78863737   -0.03931604      16
Co     1.78244332   -1.77510552   -0.02382250      17
Ni     0.00000000    0.00000000    0.00000000      18
          18
Lattice="  24.8920   0.0000   0.0000   0.0000  24.8920   0.0000   0.0000   0.0000  24.8920 " ConfE="      -5937.6743" DelE="          0.6435"
Co    -3.46247466   -0.00308981    0.02880151       1
Ni     0.02304788    0.03226585   -3.58419231       2
Co     0.03520620   -0.01505153    3.45235201       3
Cr     0.05140801    3.61181677   -0.03092887       4
Co     3.59523225    0.03177678   -0.04375779       5
Co     0.06724047   -3.60250338   -0.03587155       6
Ni    -1.73565881    1.89068492   -0.03530194       7
Ni    -1.68731562    0.00946822   -1.70609506       8
Co     0.10722706    1.90908411    1.76011590       9
Ni     0.01940450   -1.75118481   -1.76024362      10
Cr    -1.74912572   -1.93362892    0.02420650      11
Co     0.05807880   -1.97588982    1.81124612      12
Ni     1.78393166    0.02279177   -1.77926755      13
Co     0.06636059    1.82974037   -1.77065823      14
Cr     1.68503430   -0.03162437    1.63392164      15
Cr     1.69644171    1.75067762   -0.04287240      16
Co     1.74308343   -1.73611326   -0.00441037      17
Ni    -0.90213311   -0.05445247    0.94493326      18
          18
Lattice="  24.8920   0.0000   0.0000   0.0000  24.8920   0.0000   0.0000   0.0000  24.8920 " ConfE="      -5938.2578" DelE="          0.0600"
Co    -3.53303111   -0.01486932   -0.01175137       1
Ni     0.03134870    0.02948655   -3.61373741       2
Co     0.07621925   -0.01507962    3.54431026       3
Cr     0.04180462    3.56555976   -0.01484342       4
Co     3.60915357    0.03219996   -0.04898229       5
Co     0.05859388   -3.57872212   -0.02759741       6
Ni    -1.68860743    1.72663676   -0.01517673       7
Ni    -1.69895173    0.00024710   -1.76148051       8
Co     0.10368731    1.69291308    1.69059808       9
Ni     0.02853389   -1.73815754   -1.77417280      10
Cr    -1.65951488   -1.77354834    0.05305701      11
Co     0.00738500   -1.77406169    1.72107558      12
Ni     1.79185506    0.02634726   -1.78851303      13
Co     0.07520661    1.82276775   -1.79300289      14
Cr     1.72863690   -0.02634892    1.66754674      15
Cr     1.73498735    1.74838051   -0.05875584      16
Co     1.75998639   -1.72397969   -0.01997919      17
Ni    -1.70586094   -0.01450098    1.73954694      18
