          18
Lattice="  24.8920   0.0000   0.0000   0.0000  24.8920   0.0000   0.0000   0.0000  24.8920 " ConfE="      -5948.8696" DelE="          0.0000"
Ni     0.01100639   -3.46517335    0.00226576       1
Cr    -0.08418250    0.04022158    3.51001220       2
Ni    -0.00086024    3.61416058   -0.04546948       3
Ni    -0.03241188    0.00266572   -3.58603900       4
Co    -3.58252109    0.07494159   -0.03406664       5
Cr     3.56347327    0.08603701   -0.01451070       6
Ni    -1.77391204   -1.72457671   -0.01315213       7
Co     1.80711514   -1.77829864    0.02794683       8
Ni    -1.74361786    0.03027886    1.74048812       9
Ni     1.71616367    0.02510315    1.75065146      10
Ni    -0.01201450   -1.72597240   -1.82010532      11
Ni    -0.01215895    1.83454369    1.73147173      12
Ni    -0.04722591    1.80763474   -1.79533591      13
Ni    -1.79596240    0.03641535   -1.80819219      14
Ni     1.75971697    0.01435067   -1.79736277      15
Co    -1.84174888    1.85307947   -0.05254353      16
Ni     1.75321407    1.80189514   -0.03760532      17
Ni     0.00000000    0.00000000    0.00000000      18
          18
Lattice="  24.8920   0.0000   0.0000   0.0000  24.8920   0.0000   0.0000   0.0000  24.8920 " ConfE="      -5948.3630" DelE="          0.5066"
Ni    -0.00221864   -3.39775618    0.03006142       1
Cr    -0.06086697    0.00148696    3.40633971       2
Ni     0.00435563    3.60420887   -0.03121943       3
Ni    -0.03161024   -0.01222551   -3.57170859       4
Co    -3.64632999    0.08055296   -0.05105065       5
Cr     3.64016780    0.10804758   -0.03894881       6
Ni    -1.93931948   -1.74814751   -0.04700590       7
Co     1.95917974   -1.81848948   -0.02387484       8
Ni    -1.91678161    0.08449495    1.75903974       9
Ni     1.90932863    0.07496418    1.74265279      10
Ni    -0.03101765   -1.69361762   -1.74696837      11
Ni    -0.01378601    1.73967363    1.69094575      12
Ni    -0.04953794    1.76677097   -1.75265158      13
Ni    -1.80523440    0.03125362   -1.78483370      14
Ni     1.74631457    0.00025625   -1.75085177      15
Co    -1.85043663    1.83062559   -0.05431723      16
Ni     1.75595383    1.77737324   -0.03486398      17
Ni     0.00546298   -0.69197982    0.67632447      18
          18
Lattice="  24.8920   0.0000   0.0000   0.0000  24.8920   0.0000   0.0000   0.0000  24.8920 " ConfE="      -5949.2313" DelE="         -0.3618"
Ni     0.01416810   -3.49312632   -0.03170531       1
Cr    -0.06609930    0.08341639    3.53566299       2
Ni     0.00269551    3.62657575   -0.04448228       3
Ni    -0.02894210    0.00029412   -3.59186873       4
Co    -3.61313126    0.08314043   -0.04787631       5
Cr     3.61317288    0.09823888   -0.03524368       6
Ni    -1.77172678   -1.68816255   -0.04012521       7
Co     1.82965557   -1.76076509   -0.01699188       8
Ni    -1.75347051    0.06922854    1.70148869       9
Ni     1.74743882    0.05729911    1.69751530      10
Ni    -0.01167574   -1.69698127   -1.77955869      11
Ni    -0.01075522    1.79533167    1.69486776      12
Ni    -0.04919829    1.79133368   -1.77574433      13
Ni    -1.78469942    0.04919987   -1.79640407      14
Ni     1.74449657    0.01985900   -1.77441053      15
Co    -1.84654759    1.86004014   -0.06649572      16
Ni     1.74273556    1.78346739   -0.04886735      17
Ni     0.00851722   -1.67395759    1.71186094      18
