          18
Lattice="  24.8920   0.0000   0.0000   0.0000  24.8920   0.0000   0.0000   0.0000  24.8920 " ConfE="      -5923.5988" DelE="          0.0000"
Ni    -0.02886173   -0.02280595   -3.46902952       1
Co    -0.03000787    3.45484133   -0.04653625       2
Co    -0.00918157   -0.00744454    3.57981500       3
Co    -0.03722624   -3.58861694    0.07542949       4
Ni    -3.58944318   -0.03173034    0.05435199       5
Cr     3.52486545   -0.05577171    0.04036506       6
Ni    -1.80124832   -0.03281460   -1.74314006       7
Co     1.70394114    0.00244748   -1.67619852       8
Ni    -1.78769760    1.72310058    0.01204077       9
Co     1.71389922    1.72444361    0.03634806      10
Ni    -0.05861551   -1.82678531   -1.73460026      11
Cr     0.00455787    1.77596533    1.83656827      12
Co    -0.02002330   -1.78079717    1.81661769      13
Co    -1.81969825   -1.83016927    0.06882742      14
Ni     1.72129055   -1.81821551    0.04743031      15
Ni    -1.79838985   -0.02787242    1.82206027      16
Cr     1.70857229   -0.02354924    1.84712669      17
Cr     0.00000000    0.00000000    0.00000000      18
          18
Lattice="  24.8920   0.0000   0.0000   0.0000  24.8920   0.0000   0.0000   0.0000  24.8920 " ConfE="      -5922.7889" DelE="          0.8100"
Ni    -0.03246802   -0.01254459   -3.43406701       1
Co    -0.03620993    3.40761062   -0.02378654       2
Co    -0.02184075    0.00008978    3.60522316       3
Co    -0.02807334   -3.57774801    0.06820452       4
Ni    -3.64301152   -0.04455690    0.06180694       5
Cr     3.63531399   -0.08305908    0.06282635       6
Ni    -1.91433381   -0.07658925   -1.74232188       7
Co     1.86746673   -0.05121114   -1.74997959       8
Ni    -1.89558385    1.72220026    0.07481759       9
Co     1.85307001    1.74374466    0.08317404      10
Ni    -0.06637089   -1.74916924   -1.71333593      11
Cr     0.00095398    1.75338771    1.80951015      12
Co    -0.01405317   -1.70063595    1.76974219      13
Co    -1.82435706   -1.82153605    0.06426940      14
Ni     1.69698705   -1.72224284    0.02536139      15
Ni    -1.79391502   -0.02210736    1.79760237      16
Cr     1.62200447   -0.00824543    1.78325723      17
Cr     0.04364114    0.77497627   -0.81556573      18
          18
Lattice="  24.8920   0.0000   0.0000   0.0000  24.8920   0.0000   0.0000   0.0000  24.8920 " ConfE="      -5923.5550" DelE="          0.0438"
Ni    -0.04257363   -0.05009617   -3.51283407       1
Co    -0.03109272    3.51258447    0.00481943       2
Co    -0.01968985   -0.01033426    3.63070739       3
Co    -0.02882049   -3.60243325    0.08215121       4
Ni    -3.61279069   -0.04286333    0.06436127       5
Cr     3.56896074   -0.06730570    0.04140283       6
Ni    -1.80921877   -0.06588568   -1.70506892       7
Co     1.69092278    0.00786719   -1.67689770       8
Ni    -1.77449267    1.68619934    0.05038391       9
Co     1.69301423    1.67908266    0.08349747      10
Ni    -0.06497276   -1.77787049   -1.70669956      11
Cr     0.01521340    1.73397456    1.79025677      12
Co    -0.01599274   -1.74574759    1.80530816      13
Co    -1.83433111   -1.86400457    0.08537068      14
Ni     1.69566820   -1.75481623    0.05264147      15
Ni    -1.78234314   -0.04218238    1.81677596      16
Cr     1.65134409   -0.03674911    1.85251716      17
Cr    -0.00006143    1.67956090   -1.69121875      18
