          18
Lattice="  24.8920   0.0000   0.0000   0.0000  24.8920   0.0000   0.0000   0.0000  24.8920 " ConfE="      -5948.0770" DelE="          0.0000"
Ni     3.48037164   -0.02661775   -0.02734323       1
Ni    -0.01737176    3.54165931   -0.01294870       2
Cr     0.06262358    0.00232865    3.49824603       3
Co    -0.10304592   -3.57028244   -0.02788142       4
Co     0.00357332    0.00735625   -3.60949152       5
Cr    -3.55903581    0.06209419   -0.02666777       6
Ni     1.72766869   -1.77468156   -0.01156924       7
Ni     0.02482077    1.73725392    1.75509788       8
Ni    -0.02599525   -1.77077806   -1.78658977       9
Ni    -1.78168638    0.03656440   -1.79762329      10
Cr     0.01029717   -1.77839718    1.75864731      11
Ni    -1.78086467    0.01048937    1.75749256      12
Cr     1.73757475    1.76370641   -0.06385593      13
Co     1.75724133   -0.01180877   -1.86182913      14
Co    -1.81696374   -1.81113368   -0.02019914      15
Co    -1.81433111    1.80669992    0.01384625      16
Co     0.00825047    1.80010466   -1.81375004      17
Ni     0.00000000    0.00000000    0.00000000      18
          18
Lattice="  24.8920   0.0000   0.0000   0.0000  24.8920   0.0000   0.0000   0.0000  24.8920 " ConfE="      -5947.5956" DelE="          0.4814"
Ni     3.46272168   -0.03507344   -0.03408308       1
Ni    -0.03397434    3.58483228   -0.02286136       2
Cr     0.08911000    0.00641383    3.44670121       3
Co    -0.10723723   -3.59773314   -0.04396166       4
Co     0.00489770    0.00702687   -3.61638800       5
Cr    -3.57652269    0.06090636   -0.02302518       6
Ni     1.78468336   -1.91226448   -0.06844817       7
Ni    -0.04229676    1.88642654    1.79493851       8
Ni    -0.02185642   -1.75205906   -1.75477833       9
Ni    -1.75587647    0.03559238   -1.75910993      10
Cr    -0.04009145   -1.96359765    1.76636066      11
Ni    -1.73142942    0.00168695    1.72831786      12
Cr     1.74720046    1.86210325   -0.11118850      13
Co     1.72821696   -0.00500457   -1.82297911      14
Co    -1.80272672   -1.80589318   -0.01703489      15
Co    -1.79950347    1.79694366    0.01844440      16
Co     0.00853340    1.78783262   -1.78007845      17
Ni     0.57191596   -0.03424135    0.64468518      18
          18
Lattice="  24.8920   0.0000   0.0000   0.0000  24.8920   0.0000   0.0000   0.0000  24.8920 " ConfE="      -5947.6937" DelE="          0.3833"
Ni     3.44214202   -0.02943601    0.00327207       1
Ni    -0.04199965    3.61934738   -0.02782936       2
Cr     0.04936657    0.04339510    3.53727226       3
Co    -0.10568524   -3.62586764   -0.05666801       4
Co     0.00855986    0.00577565   -3.60874533       5
Cr    -3.54824327    0.05723675   -0.01942328       6
Ni     1.76625026   -1.91630932   -0.08163510       7
Ni    -0.06612202    1.90734952    1.77344983       8
Ni    -0.01970168   -1.75066699   -1.74776147       9
Ni    -1.74926906    0.03211863   -1.75680966      10
Cr    -0.08968718   -2.03020929    1.71754261      11
Ni    -1.66620248   -0.01214741    1.70952410      12
Cr     1.70133471    1.83429552   -0.11147294      13
Co     1.72830794   -0.00889291   -1.80835024      14
Co    -1.79055599   -1.81839155   -0.01829122      15
Co    -1.80119551    1.79950747    0.02105370      16
Co     0.01076706    1.78298720   -1.75326273      17
Ni     0.98245331   -0.07149033    1.13673047      18
