          18
Lattice="  24.8920   0.0000   0.0000   0.0000  24.8920   0.0000   0.0000   0.0000  24.8920 " ConfE="      -5926.6286" DelE="          0.0000"
Ni    -3.54368602   -0.02657216    0.00571005       1
Ni     0.00443520    0.04530448    3.49657387       2
Ni     3.55869929    0.03840024    0.00604880       3
Cr    -0.00296143    3.65142807    0.02423329       4
Co    -0.00326901    0.08061592   -3.49297315       5
Co     0.01559198   -3.56055738   -0.00264630       6
Ni    -1.74487085   -0.03479841    1.73823883       7
Co    -1.79174335    0.00326263   -1.74773118       8
Cr    -0.26083029    1.76717641   -1.49341513       9
Cr    -0.13866956    1.80801747    1.63342389      10
Ni     1.79933957    1.80925948    0.02660777      11
Co    -1.78284801   -1.86085465   -0.03993634      12
Co     0.00613138   -1.77127284   -1.78615360      13
Co     0.02757970   -1.80843380    1.77536132      14
Cr     1.68278324    0.03391199   -1.73704753      15
Co     1.79240905   -1.75302118   -0.02133664      16
Co     1.77224958    0.03061233    1.75126192      17
Co     0.00000000    0.00000000    0.00000000      18
          18
Lattice="  24.8920   0.0000   0.0000   0.0000  24.8920   0.0000   0.0000   0.0000  24.8920 " ConfE="      -5925.8770" DelE="          0.7516"
Ni    -3.53462651   -0.04231047    0.01386952       1
Ni     0.01796809    0.02846846    3.55911879       2
Ni     3.54683807    0.04268999    0.00383421       3
Cr    -0.01851092    3.58801987    0.00204816       4
Co    -0.01675421    0.04259646   -3.56966660       5
Co    -0.00040125   -3.55517758   -0.00413483       6
Ni    -1.74947489   -0.07815881    1.84892488       7
Co    -1.83537692   -0.01657868   -1.86621812       8
Cr    -0.06982560    1.86537201   -1.92087779       9
Cr    -0.05910712    1.85269469    1.90007226      10
Ni     1.72117353    1.78846043    0.01593623      11
Co    -1.73666981   -1.77669561   -0.03617159      12
Co    -0.03042953   -1.74894601   -1.78619639      13
Co     0.02705450   -1.78862563    1.78776460      14
Cr     1.50913610   -0.02851209   -1.61421399      15
Co     1.71620233   -1.69703962   -0.00568068      16
Co     1.73177343    0.04226207    1.75275325      17
Co    -0.73283401    0.93283806   -0.02723393      18
          18
Lattice="  24.8920   0.0000   0.0000   0.0000  24.8920   0.0000   0.0000   0.0000  24.8920 " ConfE="      -5926.9836" DelE="         -0.3550"
Ni    -3.58878289    0.00946634   -0.00447431       1
Ni     0.01216162    0.04089680    3.52242823       2
Ni     3.59383499    0.03117038    0.01567146       3
Cr     0.01239721    3.64068008    0.02013785       4
Co     0.00186420    0.04927338   -3.53920959       5
Co     0.00663136   -3.55546577   -0.00627436       6
Ni    -1.72357524   -0.00260246    1.71460026       7
Co    -1.76479102    0.03695321   -1.73550135       8
Cr    -0.01664267    1.69014857   -1.58446050       9
Cr     0.01773736    1.73967805    1.66220552      10
Ni     1.82279448    1.78542711    0.02224045      11
Co    -1.78525932   -1.81304378   -0.04080234      12
Co    -0.00415359   -1.70484459   -1.73414602      13
Co     0.02824926   -1.76048960    1.74627668      14
Cr     1.65482231   -0.07979656   -1.66100725      15
Co     1.76849891   -1.72058653   -0.01108682      16
Co     1.75156042    0.02643277    1.73430978      17
Co    -1.79468824    1.82360607    0.01751935      18
