          18
Lattice="  24.8920   0.0000   0.0000   0.0000  24.8920   0.0000   0.0000   0.0000  24.8920 " ConfE="      -5937.0958" DelE="          0.0000"
Ni     0.06133070    3.55763703    0.03449887       1
Ni    -3.48149522    0.01835726    0.01881156       2
Ni     0.06873942    0.02789070    3.59217376       3
Co     0.07432249    0.02664774   -3.50946218       4
Co     3.64735114    0.00858009    0.06685070       5
Co     0.06744606   -3.53146160    0.01008766       6
Ni     0.03981652    1.77523537   -1.73308748       7
Cr     1.82593139    1.76835563    0.04696916       8
Ni     1.84517455   -1.70896919   -0.00058962       9
Co     1.88010402    0.04659255   -1.72997471      10
Co    -1.71223269    1.75067944    0.04279186      11
Cr     0.05147046   -1.67841651   -1.75041158      12
Cr     0.03706288    1.76806100    1.79653035      13
Cr    -1.64909834   -1.66532222   -0.03021916      14
Co     1.82857987   -0.00070539    1.80549475      15
Cr     0.06184242   -1.73502668    1.77668454      16
Co    -1.72757975    0.02527170    1.85730496      17
Co     0.00000000    0.00000000    0.00000000      18
          18
Lattice="  24.8920   0.0000   0.0000   0.0000  24.8920   0.0000   0.0000   0.0000  24.8920 " ConfE="      -5936.2554" DelE="          0.8404"
Ni     0.07900262    3.63337221    0.04733816       1
Ni    -3.44874319    0.01594360    0.02493214       2
Ni     0.05667127    0.03384921    3.62026811       3
Co     0.07539962    0.03893809   -3.50988407       4
Co     3.62440805    0.00271865    0.06292900       5
Co     0.08272428   -3.59166585    0.04314660       6
Ni     0.10813085    1.92425702   -1.75032152       7
Cr     1.75963557    1.73244029    0.04252249       8
Ni     1.76717647   -1.67403754    0.01995506       9
Co     1.77784757    0.06208041   -1.69785860      10
Co    -1.68839550    1.85988629    0.10459718      11
Cr     0.13475884   -1.82906003   -1.77284742      12
Cr     0.02992000    1.70350767    1.72652262      13
Cr    -1.65132037   -1.80750723    0.04695501      14
Co     1.79882623    0.01171285    1.80528591      15
Cr     0.04230128   -1.67688150    1.75232312      16
Co    -1.66718118    0.01191749    1.78939899      17
Co    -1.01481859   -0.01729249   -1.11797880      18
          18
Lattice="  24.8920   0.0000   0.0000   0.0000  24.8920   0.0000   0.0000   0.0000  24.8920 " ConfE="      -5936.6776" DelE="          0.4183"
Ni     0.07388298    3.57943459    0.04486899       1
Ni    -3.51707321    0.02419566    0.04310630       2
Ni     0.06408238    0.03169060    3.61905325       3
Co     0.08986037    0.03512450   -3.55409400       4
Co     3.65288933    0.00494410    0.06835364       5
Co     0.07044953   -3.54470428    0.01661141       6
Ni     0.07710715    1.77385873   -1.70069275       7
Cr     1.81260109    1.75364486    0.05791715       8
Ni     1.80181773   -1.67379533    0.00526333       9
Co     1.84640494    0.04397402   -1.71885130      10
Co    -1.65474585    1.73814848    0.08242481      11
Cr     0.06855115   -1.66769960   -1.72432300      12
Cr     0.05430913    1.71027776    1.75872469      13
Cr    -1.62218809   -1.64669662   -0.01088793      14
Co     1.80126428    0.01961223    1.79111390      15
Cr     0.06320919   -1.66502307    1.74114682      16
Co    -1.68840145    0.01695986    1.81876661      17
Co    -1.64275359   -0.01160003   -1.67289322      18
