          18
Lattice="  24.8920   0.0000   0.0000   0.0000  24.8920   0.0000   0.0000   0.0000  24.8920 " ConfE="      -5941.1492" DelE="          0.0000"
Cr     0.04527446   -3.42259010   -0.00919779       1
Cr     0.07224454    0.10203833   -3.51817608       2
Cr     0.05477782    3.70438720    0.01698465       3
Ni    -0.00670307    0.13457221    3.63482557       4
Co    -3.46930765    0.12687293    0.01662090       5
Co     3.52145427    0.12092986    0.03485359       6
Co    -1.67229170   -1.69458757   -0.03978567       7
Cr     1.74932742   -1.71584825    0.01070671       8
Cr    -1.69699224    0.07232375   -1.70924895       9
Co     1.71341607    0.06114731   -1.69436863      10
Ni    -0.01615542   -1.67435946    1.87819858      11
Cr     0.03623868    1.92891040   -1.79457715      12
Co     0.01151845    1.89229733    1.79058852      13
Ni    -1.76275254    0.13284931    1.82731102      14
Cr     1.72148097    0.14954697    1.80697825      15
Ni    -1.71750407    1.91289347    0.04469213      16
Cr     1.72705116    1.90987763    0.02211546      17
Cr     0.00000000    0.00000000    0.00000000      18
          18
Lattice="  24.8920   0.0000   0.0000   0.0000  24.8920   0.0000   0.0000   0.0000  24.8920 " ConfE="      -5940.6849" DelE="          0.4643"
Cr     0.04586497   -3.49832595    0.04981655       1
Cr     0.07879562    0.14107368   -3.55262600       2
Cr     0.05720051    3.68275734   -0.00366167       3
Ni    -0.00700654    0.12253633    3.62042261       4
Co    -3.53025966    0.13984157    0.02719077       5
Co     3.59398719    0.14341869    0.04331959       6
Co    -1.81483923   -1.71289677    0.05080184       7
Cr     1.91749476   -1.73650898    0.06495547       8
Cr    -1.86130335    0.09392204   -1.66772413       9
Co     1.89748362    0.16565783   -1.71257824      10
Ni    -0.01119774   -1.66176590    1.77700801      11
Cr    -0.00245747    1.86664386   -1.79954721      12
Co     0.01489930    1.87287120    1.76975387      13
Ni    -1.74760845    0.12435719    1.78812193      14
Cr     1.60834951    0.12654575    1.65235663      15
Ni    -1.69876963    1.87389538    0.03353721      16
Cr     1.61837206    1.81237549    0.00055809      17
Cr     0.04917440   -0.88147874   -0.89099601      18
          18
Lattice="  24.8920   0.0000   0.0000   0.0000  24.8920   0.0000   0.0000   0.0000  24.8920 " ConfE="      -5941.1274" DelE="          0.0218"
Cr     0.05893071   -3.50459820    0.08896089       1
Cr     0.09728870    0.16245108   -3.61133330       2
Cr     0.06889174    3.70522578    0.01594820       3
Ni    -0.00891497    0.14239585    3.65330790       4
Co    -3.50270129    0.14354314    0.03332157       5
Co     3.55410938    0.13115316    0.04511864       6
Co    -1.66652329   -1.65097525   -0.00790606       7
Cr     1.72913815   -1.65727369    0.06674561       8
Cr    -1.71106194    0.11576783   -1.63080513       9
Co     1.72008083    0.11933873   -1.64169114      10
Ni    -0.01705703   -1.63418583    1.83604330      11
Cr     0.02193868    1.85146336   -1.76671248      12
Co     0.02534162    1.89100762    1.78983128      13
Ni    -1.75074143    0.15453522    1.82398959      14
Cr     1.66139321    0.16486703    1.75801750      15
Ni    -1.69483551    1.91356264    0.06080740      16
Cr     1.67866375    1.87338261    0.04129937      17
Cr     0.00855537   -1.56512844   -1.68185865      18
