          18
Lattice="  24.8920   0.0000   0.0000   0.0000  24.8920   0.0000   0.0000   0.0000  24.8920 " ConfE="      -5935.4960" DelE="          0.0000"
Ni    -0.04014156    3.44734855   -0.02874392       1
Cr     3.49780040   -0.05822407   -0.04838393       2
Cr    -0.04465628   -3.54620337   -0.07116559       3
Cr    -3.57080390   -0.05725403    0.02621553       4
Co    -0.04394843   -0.07648715   -3.57102999       5
Co    -0.04098633   -0.01535095    3.49511587       6
Ni    -0.03534177    1.69241200   -1.78179746       7
Cr     0.06748701    1.74205694    1.77971574       8
Co     1.77934813   -0.02806225   -1.75128260       9
Ni     1.75863345   -0.02149603    1.72184384      10
Cr    -1.85056184    1.67692779    0.01720529      11
Co     1.73660150   -1.85143619   -0.02538525      12
Ni    -1.80279467   -1.77720039   -0.01395501      13
Co    -1.83553605   -0.05267867   -1.78542267      14
Co    -1.81763030   -0.02241754    1.75144913      15
Co    -0.03229610   -1.82141722   -1.77585700      16
Ni    -0.02607855   -1.81190753    1.75669660      17
Ni     0.00000000    0.00000000    0.00000000      18
          18
Lattice="  24.8920   0.0000   0.0000   0.0000  24.8920   0.0000   0.0000   0.0000  24.8920 " ConfE="      -5935.0449" DelE="          0.4511"
Ni    -0.03552886    3.41002703   -0.03288871       1
Cr     3.44703413   -0.13236868   -0.00994442       2
Cr    -0.03906561   -3.57112847   -0.07160375       3
Cr    -3.57887018   -0.04853130    0.03104938       4
Co    -0.04528110   -0.08555331   -3.61462864       5
Co    -0.04847191   -0.02253976    3.52914786       6
Ni    -0.06325148    1.73335945   -1.93209710       7
Cr     0.10374205    1.78239954    1.93610970       8
Co     1.80514149   -0.08348685   -1.89592698       9
Ni     1.78295757   -0.10743127    1.86890003      10
Cr    -1.79879351    1.63372906   -0.00636684      11
Co     1.70712061   -1.81831088   -0.02460037      12
Ni    -1.76653541   -1.75363584   -0.01538731      13
Co    -1.78995186   -0.03706322   -1.76056944      14
Co    -1.72143751    0.02048358    1.68926273      15
Co    -0.02114008   -1.79995506   -1.77282440      16
Ni    -0.02401622   -1.80887905    1.75076012      17
Ni     0.54183926    0.56482577    0.00941251      18
          18
Lattice="  24.8920   0.0000   0.0000   0.0000  24.8920   0.0000   0.0000   0.0000  24.8920 " ConfE="      -5935.5300" DelE="         -0.0340"
Ni    -0.05949680    3.47462930   -0.02845975       1
Cr     3.54482857   -0.07907823   -0.02694178       2
Cr    -0.03251192   -3.54697783   -0.07588987       3
Cr    -3.59863148   -0.05906455    0.02018957       4
Co    -0.05467514   -0.08762297   -3.60175576       5
Co    -0.04743296   -0.02088961    3.52206001       6
Ni    -0.05538100    1.63666213   -1.76711343       7
Cr    -0.01461297    1.69285577    1.79051370       8
Co     1.75167804   -0.08294251   -1.77610754       9
Ni     1.72194465   -0.05683384    1.73995969      10
Cr    -1.77239597    1.59102602    0.02392338      11
Co     1.71826593   -1.80188927   -0.03252591      12
Ni    -1.77645188   -1.74583421   -0.01702321      13
Co    -1.82569864   -0.06071406   -1.77283583      14
Co    -1.76127351   -0.00387486    1.70625166      15
Co    -0.03316715   -1.80937930   -1.75758099      16
Ni    -0.02834872   -1.78972751    1.72874834      17
Ni     1.69224171    1.66138623   -0.00039695      18
