          18
Lattice="  24.8920   0.0000   0.0000   0.0000  24.8920   0.0000   0.0000   0.0000  24.8920 " ConfE="      -5948.0713" DelE="          0.0000"
Ni    -3.55630956   -0.01393731    0.05659780       1
Cr     0.00858622    0.02545829   -3.50587451       2
Co    -0.02745974    3.51723133    0.06064328       3
Co     0.00089895   -3.57255098    0.05820895       4
Co     3.52564320    0.00059914    0.08338319       5
Co    -0.00049654   -0.06007554    3.59293064       6
Ni    -1.78332362   -0.00477758   -1.73809230       7
Cr    -1.68777837    1.75512772    0.03167594       8
Ni    -0.02307492   -1.80963973   -1.75957210       9
Cr     1.75783850    0.02102911   -1.72624887      10
Co     1.71363857    1.74730361    0.01491266      11
Cr    -1.74565341   -1.78937811    0.07932566      12
Cr     0.07949449    1.70331107    1.84135552      13
Co    -1.79226502    0.01172773    1.81388973      14
Cr     1.74466112   -1.78688762    0.04121065      15
Co     1.74767155   -0.03382170    1.82423078      16
Cr    -0.01074093   -1.76782701    1.83967687      17
Co     0.00000000    0.00000000    0.00000000      18
          18
Lattice="  24.8920   0.0000   0.0000   0.0000  24.8920   0.0000   0.0000   0.0000  24.8920 " ConfE="      -5943.3955" DelE="          4.6758"
Ni    -3.55511617   -0.07328112    0.09499997       1
Cr    -0.01489037    0.03822344   -3.54128148       2
Co     0.03578710    3.61274940    0.15167182       3
Co    -0.00149275   -3.58497727    0.05905718       4
Co     3.52165585    0.00871411    0.09114650       5
Co     0.01717432   -0.06875928    3.62313776       6
Ni    -1.79987724    0.02724850   -1.74249539       7
Cr    -3.15418655    2.14203245   -1.34250884       8
Ni    -0.03853522   -1.74161600   -1.72668117       9
Cr     1.69138988    0.05950443   -1.68185013      10
Co     1.63215925    1.69224063    0.00216170      11
Cr    -1.65406859   -1.72202852    0.09947363      12
Cr     0.11041412    1.68526151    1.84188667      13
Co    -1.72591193   -0.03721566    1.81925150      14
Cr     1.66978923   -1.73980893    0.04449756      15
Co     1.70810364   -0.04812706    1.79016843      16
Cr    -0.00146206   -1.75334294    1.84416919      17
Co    -1.49682071    1.67832281    0.10245848      18
          18
Lattice="  24.8920   0.0000   0.0000   0.0000  24.8920   0.0000   0.0000   0.0000  24.8920 " ConfE="      -5948.1130" DelE="         -0.0417"
Ni    -3.58831677   -0.03065415    0.06532412       1
Cr    -0.01693373    0.03569359   -3.47992045       2
Co    -0.03070594    3.50519924    0.06462227       3
Co    -0.00790133   -3.55090720    0.05797684       4
Co     3.52896718    0.00418936    0.08715461       5
Co    -0.00144181   -0.05748113    3.58165219       6
Ni    -0.00664152    0.03319652   -0.02637152       7
Cr    -3.59800057    1.72156082   -1.74318858       8
Ni    -0.02375660   -1.80228419   -1.75301283       9
Cr     1.78942611    0.02797927   -1.74276795      10
Co     1.75295375    1.75961967    0.02288175      11
Cr    -1.76815531   -1.77277132    0.05844297      12
Cr     0.04572831    1.72775489    1.82414159      13
Co    -1.79669360   -0.00140805    1.80964878      14
Cr     1.76055427   -1.78954572    0.04570820      15
Co     1.74833827   -0.02505302    1.82435027      16
Cr    -0.02182974   -1.75988972    1.83518783      17
Co    -1.80098790    1.74656647    0.03414911      18
