          18
Lattice="  24.8920   0.0000   0.0000   0.0000  24.8920   0.0000   0.0000   0.0000  24.8920 " ConfE="      -5938.1680" DelE="          0.0000"
Ni    -0.00848978    3.49207460   -0.03118107       1
Ni    -3.44772840   -0.01903663    0.01323758       2
Ni     0.04519233   -0.03819650    3.52971306       3
Co     0.04488621   -0.04412402   -3.56553711       4
Cr     0.09230915   -3.64411293   -0.00002074       5
Cr     3.65238129   -0.06940175   -0.01336373       6
Ni    -0.02060981    1.70884982   -1.76682453       7
Cr    -1.70696676    0.06032219    1.73211435       8
Co     0.10989828    1.75672419    1.73191911       9
Cr    -1.76539911    0.03924152   -1.75040500      10
Ni    -1.71640752   -1.84537625    0.00377083      11
Ni     0.04706575   -1.82309506   -1.77792370      12
Co     0.08337507   -1.83168500    1.74562972      13
Cr     1.85032410   -0.06198971    1.72018288      14
Cr     1.85707594    1.77674501   -0.07825816      15
Co     1.84285892   -0.04906648   -1.76207776      16
Cr     1.84043234   -1.86785993   -0.02408509      17
Cr     0.00000000    0.00000000    0.00000000      18
          18
Lattice="  24.8920   0.0000   0.0000   0.0000  24.8920   0.0000   0.0000   0.0000  24.8920 " ConfE="      -5937.7726" DelE="          0.3953"
Ni    -0.01350908    3.41853794   -0.03800844       1
Ni    -3.40432837   -0.01963328    0.01199101       2
Ni     0.06104303   -0.03785268    3.58731126       3
Co     0.06007851   -0.06270199   -3.65332595       4
Cr     0.09075611   -3.61379604   -0.00781995       5
Cr     3.63299386   -0.07329979   -0.00545957       6
Ni     0.02118160    1.69213538   -1.89402678       7
Cr    -1.79944482   -0.04413548    1.97176074       8
Co     0.14389186    1.79881205    1.86114459       9
Cr    -1.78187994   -0.01685825   -1.93623852      10
Ni    -1.67706994   -1.77244782    0.00055074      11
Ni     0.03251579   -1.78800633   -1.79145057      12
Co     0.07072041   -1.77036166    1.72920338      13
Cr     1.72126242   -0.03106021    1.65418509      14
Cr     1.81119085    1.68629322   -0.10781937      15
Co     1.80540476   -0.04360031   -1.76040814      16
Cr     1.72723556   -1.71796546   -0.03671727      17
Cr    -0.82824979    0.74232902    0.10163710      18
          18
Lattice="  24.8920   0.0000   0.0000   0.0000  24.8920   0.0000   0.0000   0.0000  24.8920 " ConfE="      -5938.5199" DelE="         -0.3519"
Ni     0.03944808    3.52728716   -0.02659659       1
Ni    -3.50123366   -0.05919357    0.02155938       2
Ni     0.05609470   -0.04110588    3.56807422       3
Co     0.04963729   -0.04734520   -3.59855602       4
Cr     0.11673877   -3.63534581   -0.01017137       5
Cr     3.65863345   -0.07016953   -0.00436704       6
Ni     0.00275694    1.66029871   -1.75340364       7
Cr    -1.64357292   -0.00441208    1.74275709       8
Co     0.13527179    1.73159740    1.72326047       9
Cr    -1.73735963   -0.00317204   -1.75948951      10
Ni    -1.67651612   -1.79121642    0.00118520      11
Ni     0.04864150   -1.80573243   -1.77428524      12
Co     0.10048780   -1.80766388    1.72829349      13
Cr     1.77992617   -0.04806084    1.69073616      14
Cr     1.81267441    1.67501232   -0.08637611      15
Co     1.82353058   -0.05264159   -1.74805850      16
Cr     1.77652102   -1.74058014   -0.02792632      17
Cr    -1.72615309    1.69968325    0.05251361      18
