          18
Lattice="  24.8920   0.0000   0.0000   0.0000  24.8920   0.0000   0.0000   0.0000  24.8920 " ConfE="      -5938.2385" DelE="          0.0000"
Ni    -0.00796660   -3.50112436    0.05013189       1
Ni    -0.00882352    3.57288849    0.02815548       2
Co    -0.00748149   -0.03538451    3.54162123       3
Cr     3.52047611    0.03191226    0.04515812       4
Co    -3.57785993   -0.02674793   -0.02920406       5
Co    -0.04605733    0.04218695   -3.54970090       6
Ni     1.75101958   -1.75361214    0.04365062       7
Ni    -1.74718177   -0.03872903    1.76340581       8
Co    -1.78112300   -1.79471200    0.00197233       9
Co     1.76972771    0.03500724    1.77011841      10
Ni    -0.00597780    1.81555625    1.78793109      11
Cr    -0.07091094   -1.69691207   -1.76046116      12
Cr     1.69866704    0.02499570   -1.72739027      13
Co    -1.78422138    0.02867183   -1.76929042      14
Co    -1.79726765    1.81030086   -0.00048527      15
Co     1.76655890    1.78701182   -0.01031732      16
Cr    -0.07632686    1.77156611   -1.74359660      17
Co     0.00000000    0.00000000    0.00000000      18
          18
Lattice="  24.8920   0.0000   0.0000   0.0000  24.8920   0.0000   0.0000   0.0000  24.8920 " ConfE="      -5937.3439" DelE="          0.8945"
Ni     0.00743393   -3.44275571    0.03918687       1
Ni    -0.01026741    3.55611006    0.03301261       2
Co    -0.02038134   -0.06123790    3.45461347       3
Cr     3.61393451    0.04322298    0.03954881       4
Co    -3.64979693   -0.01702166   -0.03604185       5
Co    -0.05477658    0.03195379   -3.54432071       6
Ni     1.95994432   -1.82700637   -0.00156866       7
Ni    -1.91344808    0.01485299    1.77579755       8
Co    -1.91797608   -1.82047998   -0.04005856       9
Co     1.91749204    0.05468499    1.77650136      10
Ni    -0.01426286    1.73795071    1.75094182      11
Cr    -0.02351731   -1.58782835   -1.67656426      12
Cr     1.71784504    0.01081698   -1.65992188      13
Co    -1.80090111    0.01438935   -1.72757152      14
Co    -1.82287761    1.80033847    0.01043216      15
Co     1.75930761    1.74573674   -0.00760028      16
Cr    -0.09875042    1.56894594   -1.60378287      17
Co     0.01911768   -0.78349420    0.75559434      18
          18
Lattice="  24.8920   0.0000   0.0000   0.0000  24.8920   0.0000   0.0000   0.0000  24.8920 " ConfE="      -5938.2650" DelE="         -0.0265"
Ni    -0.00495633   -3.53634263    0.00099267       1
Ni    -0.00396836    3.57116605    0.02945814       2
Co    -0.00285331    0.00265089    3.57762544       3
Cr     3.58209008    0.03872793    0.04035278       4
Co    -3.60145028   -0.02850734   -0.03333546       5
Co    -0.05325243    0.04404940   -3.57171679       6
Ni     1.74444453   -1.71376579    0.00738463       7
Ni    -1.75303315   -0.00512468    1.72931249       8
Co    -1.77460855   -1.77705445   -0.02382005       9
Co     1.77354612    0.04739474    1.75802347      10
Ni    -0.00577029    1.77531240    1.76509616      11
Cr    -0.07405574   -1.59237498   -1.68939368      12
Cr     1.69386823    0.04927093   -1.71053279      13
Co    -1.76605065    0.03915838   -1.74125596      14
Co    -1.78651374    1.80242710   -0.00301388      15
Co     1.74335219    1.73894537   -0.02342063      16
Cr    -0.08956620    1.65497144   -1.67330163      17
Co    -0.00813737   -1.74148495    1.76659377      18
