          18
Lattice="  24.8920   0.0000   0.0000   0.0000  24.8920   0.0000   0.0000   0.0000  24.8920 " ConfE="      -5947.8710" DelE="          0.0000"
Cr    -0.06291268   -3.63520910   -0.06715470       1
Ni    -0.01080364   -0.01099060    3.45871098       2
Ni    -0.01809856    3.54464488   -0.05921939       3
Co    -0.01470730    0.02661215   -3.63723854       4
Cr    -3.60516902   -0.00494177   -0.07769046       5
Ni     3.48485161   -0.02183405   -0.08264906       6
Ni    -1.74350740   -1.76564646   -0.02540120       7
Ni     1.66710326   -1.80914814   -0.04894469       8
Cr    -1.77247529    0.03786922    1.68237781       9
Co     1.71840241   -0.04415299    1.71280757      10
Ni    -0.06096570   -1.77944211   -1.86148763      11
Ni    -0.01593212    1.80231929    1.73956467      12
Ni    -0.03365531    1.76221737   -1.82757641      13
Co    -1.80880030    0.02446157   -1.79054532      14
Cr     1.70394838   -0.02235868   -1.86535347      15
Co    -1.80348329    1.76728820   -0.05052240      16
Cr     1.72492200    1.73334971   -0.01688860      17
Cr     0.00000000    0.00000000    0.00000000      18
          18
Lattice="  24.8920   0.0000   0.0000   0.0000  24.8920   0.0000   0.0000   0.0000  24.8920 " ConfE="      -5947.2630" DelE="          0.6080"
Cr    -0.06301995   -3.56376956   -0.05554330       1
Ni    -0.00095578    0.00393606    3.47961880       2
Ni    -0.01563174    3.50350576   -0.05199863       3
Co    -0.01854999    0.01642653   -3.64799493       4
Cr    -3.70246378    0.00927299   -0.09416953       5
Ni     3.56932815   -0.00953853   -0.09137747       6
Ni    -1.85867732   -1.75292846   -0.07988591       7
Ni     1.79090429   -1.78044217   -0.09023778       8
Cr    -1.90917614    0.10864180    1.72243789       9
Co     1.93361214    0.02911718    1.78293224      10
Ni    -0.05587846   -1.72057902   -1.77272278      11
Ni    -0.00062985    1.72174490    1.72573702      12
Ni    -0.04245345    1.69319364   -1.79082947      13
Co    -1.82788400    0.02265848   -1.76379506      14
Cr     1.70359495   -0.00489686   -1.82727708      15
Co    -1.78457758    1.67964378   -0.01653717      16
Cr     1.65571318    1.57912324   -0.00617691      17
Cr    -0.01428710   -0.86542834    1.04206856      18
          18
Lattice="  24.8920   0.0000   0.0000   0.0000  24.8920   0.0000   0.0000   0.0000  24.8920 " ConfE="      -5948.0118" DelE="         -0.1408"
Cr    -0.05277363   -3.61853661   -0.08525116       1
Ni    -0.02272498    0.03788830    3.52017898       2
Ni    -0.02075681    3.53378654   -0.06145451       3
Co    -0.01452778    0.03117197   -3.66238942       4
Cr    -3.63170871    0.00500823   -0.08021433       5
Ni     3.52307472   -0.01208135   -0.09320786       6
Ni    -1.75045971   -1.72527961   -0.04991087       7
Ni     1.68200889   -1.75548451   -0.08370518       8
Cr    -1.77229160    0.07902088    1.65653765       9
Co     1.71917000   -0.00029495    1.67600309      10
Ni    -0.05432050   -1.73198128   -1.83435605      11
Ni    -0.01230048    1.75248675    1.70815792      12
Ni    -0.03866600    1.72011228   -1.80238035      13
Co    -1.82382201    0.03370511   -1.78174354      14
Cr     1.70181597    0.01168397   -1.86332538      15
Co    -1.79635110    1.72939556   -0.04055507      16
Cr     1.70568163    1.68262614   -0.04228109      17
Cr    -0.02537518   -1.69617706    1.70456828      18
