          18
Lattice="  24.8920   0.0000   0.0000   0.0000  24.8920   0.0000   0.0000   0.0000  24.8920 " ConfE="      -5922.6029" DelE="          0.0000"
Ni    -0.03015743   -0.05659239   -3.41143913       1
Ni     3.50537884   -0.01242284    0.07409368       2
Co    -0.04728619   -3.53135127    0.13000346       3
Cr    -3.59930033    0.02534034    0.08454957       4
Cr    -0.04827942    0.02292128    3.68132401       5
Cr    -0.01428689    3.53168780    0.16216049       6
Ni    -1.76136231   -1.77328001    0.08372560       7
Ni     1.70248338   -1.79417720    0.08438673       8
Cr    -1.75046401   -0.06307703   -1.66335544       9
Ni    -1.78837434   -0.01399851    1.86911030      10
Ni    -1.78322063    1.75631588    0.09335190      11
Cr     1.69531132   -0.05570317   -1.72503571      12
Ni     1.74306087   -0.02052640    1.87658699      13
Cr     0.00011209    1.84706300   -1.67980771      14
Co    -0.01599206    1.74838821    1.85845583      15
Cr    -0.01895703   -1.79725882    1.95108297      16
Co     1.76333333    1.76221667    0.08104982      17
Cr     0.00000000    0.00000000    0.00000000      18
          18
Lattice="  24.8920   0.0000   0.0000   0.0000  24.8920   0.0000   0.0000   0.0000  24.8920 " ConfE="      -5922.0280" DelE="          0.5749"
Ni    -0.01626864   -0.03802162   -3.34967376       1
Ni     3.57472572   -0.00508819    0.10403651       2
Co    -0.03079328   -3.43672374    0.11316231       3
Cr    -3.68278431    0.05019394    0.12151017       4
Cr    -0.04360996    0.00818487    3.64063819       5
Cr    -0.01604460    3.52182469    0.16049753       6
Ni    -1.88382276   -1.79115439    0.12135552       7
Ni     1.85556598   -1.81454736    0.13352278       8
Cr    -1.95587482   -0.03400899   -1.66307343       9
Ni    -1.77710444   -0.02864298    1.83268709      10
Ni    -1.76477558    1.70165049    0.08156495      11
Cr     1.95949257    0.05761403   -1.77046327      12
Ni     1.73628399   -0.03169567    1.84078173      13
Cr    -0.00374163    1.82796742   -1.62070230      14
Co    -0.00831251    1.71500741    1.81790347      15
Cr    -0.01457400   -1.76582154    1.87122719      16
Co     1.71835292    1.69260199    0.04366393      17
Cr     0.03789079   -0.79526264   -0.84820288      18
          18
Lattice="  24.8920   0.0000   0.0000   0.0000  24.8920   0.0000   0.0000   0.0000  24.8920 " ConfE="      -5922.7294" DelE="         -0.1265"
Ni    -0.02667511   -0.02443980   -3.47858250       1
Ni     3.50193316   -0.00550275    0.08524555       2
Co    -0.03542901   -3.57760025    0.14627863       3
Cr    -3.57995070    0.01662431    0.08244440       4
Cr    -0.04899795    0.02778548    3.68863734       5
Cr    -0.02544949    3.55730039    0.17611086       6
Ni    -1.72639960   -1.76847462    0.11114085       7
Ni     1.68313981   -1.76916747    0.12977944       8
Cr    -1.62490026   -0.06223486   -1.61573462       9
Ni    -1.75080389   -0.01893660    1.85716614      10
Ni    -1.72622016    1.71708506    0.09611384      11
Cr     1.58962261   -0.01950388   -1.63579478      12
Ni     1.71577684   -0.01929323    1.87260311      13
Cr     0.01193874    1.81943337   -1.63412278      14
Co    -0.00747278    1.75237733    1.86980063      15
Cr    -0.01089386   -1.79166257    1.97068058      16
Co     1.71264857    1.73856696    0.08556404      17
Cr     0.04440585   -1.91316026   -1.75167206      18
