          18
Lattice="  24.8920   0.0000   0.0000   0.0000  24.8920   0.0000   0.0000   0.0000  24.8920 " ConfE="      -5949.7041" DelE="          0.0000"
Cr    -0.05181488    3.50628860    0.05374916       1
Ni     0.04060420   -0.03950190   -3.61674490       2
Co     0.01088872   -0.01098126    3.44978315       3
Co     3.52372169    0.01412097   -0.01926909       4
Cr     0.00571490   -3.55732152    0.00500750       5
Co    -3.51168020   -0.00039667   -0.04442432       6
Ni     1.73914384    1.75574130   -0.02973129       7
Ni     0.01611893    1.77243910   -1.83767091       8
Ni     1.77066442   -0.02703216   -1.81065784       9
Cr     1.69999279    0.08711663    1.82402939      10
Ni    -1.74132518   -0.04284415   -1.80935090      11
Co    -1.74971691    1.79242459   -0.02693103      12
Co    -1.73123698    0.00327721    1.71989971      13
Cr     0.02729751   -1.82630812   -1.80329221      14
Co    -0.00125931   -1.83876059    1.71458528      15
Co     1.76386884   -1.76938816    0.02596302      16
Cr    -1.75835762   -1.80228450    0.03210680      17
Ni     0.00000000    0.00000000    0.00000000      18
          18
Lattice="  24.8920   0.0000   0.0000   0.0000  24.8920   0.0000   0.0000   0.0000  24.8920 " ConfE="      -5949.1714" DelE="          0.5327"
Cr    -0.00991962    3.50470667    0.04808546       1
Ni     0.04363159   -0.03470766   -3.60912684       2
Co    -0.01114270   -0.02425566    3.46734147       3
Co     3.58221603   -0.00867272   -0.03728332       4
Cr     0.00368957   -3.56471220    0.01988126       5
Co    -3.58182748   -0.02948070   -0.05613543       6
Ni     1.89996867    1.78632826   -0.12511918       7
Ni     0.01747468    1.75008365   -1.76820689       8
Ni     1.76174391   -0.02718273   -1.78101672       9
Cr     1.94299125    0.03458963    1.80463979      10
Ni    -1.70740846   -0.05453840   -1.75675674      11
Co    -1.91346801    1.78681100   -0.11023265      12
Co    -1.89924525   -0.08598212    1.70507386      13
Cr     0.03549319   -1.79303051   -1.74303159      14
Co    -0.00313493   -1.73596145    1.66933380      15
Co     1.72952353   -1.71430213    0.02265031      16
Cr    -1.69290499   -1.72979645    0.06010620      17
Ni     0.02266084    1.05809332    1.06466317      18
          18
Lattice="  24.8920   0.0000   0.0000   0.0000  24.8920   0.0000   0.0000   0.0000  24.8920 " ConfE="      -5949.6647" DelE="          0.0393"
Cr    -0.00063251    3.57248515   -0.00546282       1
Ni     0.04314440   -0.03970298   -3.62954095       2
Co    -0.01297203   -0.04241578    3.51795851       3
Co     3.55574551    0.00557140   -0.03287881       4
Cr     0.00589027   -3.58275505    0.00497250       5
Co    -3.54556211   -0.01130386   -0.05767613       6
Ni     1.74599701    1.71903548   -0.04965372       7
Ni     0.01499488    1.75510270   -1.79936850       8
Ni     1.75000410   -0.03077931   -1.79069112       9
Cr     1.75588872    0.03342374    1.78734061      10
Ni    -1.69867505   -0.05585250   -1.76969584      11
Co    -1.78423147    1.76760728   -0.06737513      12
Co    -1.72489294   -0.04449905    1.63978215      13
Cr     0.03193829   -1.81037288   -1.76923371      14
Co    -0.00374500   -1.76550620    1.66406623      15
Co     1.72374869   -1.72762837    0.01042449      16
Cr    -1.69311830   -1.76493904    0.02999769      17
Ni    -0.01276957    1.71165514    1.69418881      18
