          18
Lattice="  24.8920   0.0000   0.0000   0.0000  24.8920   0.0000   0.0000   0.0000  24.8920 " ConfE="      -5934.2385" DelE="          0.0000"
Ni     0.01356790   -3.54284375    0.02207895       1
Ni     0.05707884    3.56400142    0.05484191       2
Ni     3.56838878   -0.01559165    0.04842878       3
Ni    -0.01371905   -0.01153990   -3.48205222       4
Co    -3.40437916   -0.02595023    0.00456402       5
Co     0.02350989   -0.02356228    3.54159734       6
Co     0.01859215   -1.74008653    1.77470303       7
Cr    -1.68438388   -0.07149501    1.65966710       8
Ni     0.03815933    1.76562009    1.81411194       9
Ni     1.81631879   -1.78823901    0.03378187      10
Co    -0.05176484   -1.77481718   -1.70441320      11
Ni    -1.73391977    1.82733094    0.04808941      12
Cr    -1.75854337    0.00974024   -1.66309450      13
Co     1.78140563   -0.04417771    1.80799639      14
Co     1.81280621    1.75201277    0.03661105      15
Co     1.74703499    0.00314150   -1.72705346      16
Co     0.02490559    1.75597542   -1.71391157      17
Cr     0.00000000    0.00000000    0.00000000      18
          18
Lattice="  24.8920   0.0000   0.0000   0.0000  24.8920   0.0000   0.0000   0.0000  24.8920 " ConfE="      -5933.4837" DelE="          0.7548"
Ni     0.00254334   -3.49989890    0.02138442       1
Ni     0.05499541    3.54910316    0.05196364       2
Ni     3.58413056   -0.02819212    0.05624392       3
Ni     0.02023273   -0.00961125   -3.54717305       4
Co    -3.38912259   -0.02396476    0.00285164       5
Co     0.03667856   -0.02776656    3.59450021       6
Co     0.07185812   -1.78101540    1.87601544       7
Cr    -1.73300868    0.03011867    1.90895497       8
Ni     0.04390821    1.70314432    1.79083912       9
Ni     1.75787883   -1.74935266    0.02811311      10
Co    -0.00413849   -1.78647412   -1.81443973      11
Ni    -1.68558795    1.73326197    0.04187231      12
Cr    -1.76250185    0.13841170   -1.89632496      13
Co     1.77586498   -0.07085268    1.81443663      14
Co     1.77951165    1.69234134    0.02566032      15
Co     1.72484612    0.00497651   -1.72622049      16
Co     0.01935269    1.70071620   -1.70930917      17
Cr    -0.79908710   -0.76450325    0.04843990      18
          18
Lattice="  24.8920   0.0000   0.0000   0.0000  24.8920   0.0000   0.0000   0.0000  24.8920 " ConfE="      -5933.9016" DelE="          0.3369"
Ni     0.04382428   -3.57695214    0.02707809       1
Ni     0.05793679    3.56326714    0.05644470       2
Ni     3.58064618   -0.02413105    0.05932326       3
Ni     0.01931508   -0.01045837   -3.52032257       4
Co    -3.48131570    0.00231500    0.00117297       5
Co     0.04268295   -0.02596058    3.58987744       6
Co     0.03054583   -1.72327229    1.77750101       7
Cr    -1.62734131   -0.04587338    1.67726085       8
Ni     0.06250195    1.72867196    1.79721254       9
Ni     1.77742608   -1.76011786    0.03672800      10
Co    -0.00744456   -1.73921261   -1.71299378      11
Ni    -1.68771062    1.75395552    0.04861637      12
Cr    -1.68345552    0.09937830   -1.71564195      13
Co     1.79126307   -0.06163185    1.82023487      14
Co     1.81044529    1.72801666    0.03006824      15
Co     1.75874863    0.02823326   -1.72365323      16
Co     0.03064540    1.72211562   -1.70746223      17
Cr    -1.64790697   -1.69025093   -0.02124112      18
