          18
Lattice="  24.8920   0.0000   0.0000   0.0000  24.8920   0.0000   0.0000   0.0000  24.8920 " ConfE="      -5946.5173" DelE="          0.0000"
Co     0.10627518    0.01085940   -3.37174739       1
Ni     0.04852331    3.51373398    0.07160918       2
Ni     0.03278090   -0.01053523    3.64549085       3
Ni     0.05579562   -3.57920615    0.13091532       4
Ni     3.59386781   -0.02853926    0.11073604       5
Co    -3.47532268   -0.02791189    0.13673476       6
Cr     1.80703507    0.02968552   -1.72308128       7
Co    -1.66310362   -0.00717867   -1.63388001       8
Ni     1.78991307    1.73811552    0.06807894       9
Co    -1.66816320    1.73207331    0.10321286      10
Cr     0.04251128   -1.80431412   -1.72023543      11
Cr     0.03707962    1.87452246    1.95620060      12
Cr     0.03904947   -1.79767290    1.87251566      13
Cr     1.82446782   -1.78565153    0.08744717      14
Ni    -1.72965422   -1.82167512    0.11183928      15
Ni     1.77949231   -0.00794061    1.86775912      16
Cr    -1.69241538    0.02333299    1.81664582      17
Cr     0.00000000    0.00000000    0.00000000      18
          18
Lattice="  24.8920   0.0000   0.0000   0.0000  24.8920   0.0000   0.0000   0.0000  24.8920 " ConfE="      -5946.0276" DelE="          0.4897"
Co     0.09560263   -0.01099056   -3.34805358       1
Ni     0.06162171    3.44302221    0.07433044       2
Ni     0.04154048    0.00189986    3.65689418       3
Ni     0.05769800   -3.57132709    0.12800538       4
Ni     3.64981855   -0.01640103    0.12646265       5
Co    -3.54914992   -0.03766770    0.15491199       6
Cr     1.99552535   -0.00452670   -1.73522727       7
Co    -1.83663446   -0.05169649   -1.67872584       8
Ni     1.92718453    1.77068272    0.12291024       9
Co    -1.79171704    1.74778733    0.12628625      10
Cr     0.04292161   -1.72502196   -1.65548787      11
Cr     0.04445942    1.81139255    1.90165201      12
Cr     0.04937336   -1.68472880    1.78732859      13
Cr     1.76045972   -1.67318200    0.06716714      14
Ni    -1.70608092   -1.76043173    0.09450349      15
Ni     1.79377055    0.01900426    1.85350064      16
Cr    -1.61236304    0.05831081    1.73948052      17
Cr     0.02153727    0.76316295   -0.79155870      18
          18
Lattice="  24.8920   0.0000   0.0000   0.0000  24.8920   0.0000   0.0000   0.0000  24.8920 " ConfE="      -5946.5174" DelE="         -0.0001"
Co     0.08559673   -0.03777843   -3.44885008       1
Ni     0.04890257    3.52646637    0.09601373       2
Ni     0.03649538   -0.01070464    3.65942813       3
Ni     0.05788971   -3.56988966    0.13508676       4
Ni     3.64023753   -0.03100100    0.12950550       5
Co    -3.53637082   -0.03554741    0.15873100       6
Cr     1.88174685   -0.01350742   -1.69539306       7
Co    -1.69040955   -0.03135957   -1.62102600       8
Ni     1.81536663    1.70361280    0.10616985       9
Co    -1.67735708    1.68888166    0.15545874      10
Cr     0.04473063   -1.59048774   -1.54765598      11
Cr     0.02079714    1.74132131    1.84128271      12
Cr     0.04651953   -1.69148388    1.79154377      13
Cr     1.82984109   -1.76891135    0.09997555      14
Ni    -1.72796002   -1.78474358    0.13344601      15
Ni     1.79737137   -0.01735561    1.86841037      16
Cr    -1.70179636    0.02239633    1.83553621      17
Cr     0.00018200    1.55435589   -1.54916014      18
