          18
Lattice="  24.8920   0.0000   0.0000   0.0000  24.8920   0.0000   0.0000   0.0000  24.8920 " ConfE="      -5949.7855" DelE="          0.0000"
Co    -0.00650903    0.11220519   -3.46269695       1
Co    -0.00839551    3.57007384   -0.00999688       2
Ni    -0.04944844    0.03538123    3.55193595       3
Co    -0.04250714   -3.50084103    0.06413408       4
Co    -3.58764213    0.04396146    0.00569055       5
Ni     3.49768321    0.03703665   -0.01656876       6
Ni    -1.75559060    0.06696222   -1.76651267       7
Cr     1.67008569   -0.01648027   -1.82524849       8
Ni    -1.77538517    1.77554364   -0.01478028       9
Ni     1.69999259    1.78538026   -0.06222704      10
Ni    -0.03954802   -1.77395197   -1.76761616      11
Ni    -0.04984180    1.77926877    1.79214596      12
Cr    -0.07704153   -1.71541464    1.81761365      13
Ni    -1.80916535   -1.74934332    0.00108582      14
Co     1.68671442   -1.70066744    0.00824225      15
Cr    -1.85645499    0.01055908    1.76090351      16
Ni     1.73365353    0.02666043    1.77745017      17
Cr     0.00000000    0.00000000    0.00000000      18
          18
Lattice="  24.8920   0.0000   0.0000   0.0000  24.8920   0.0000   0.0000   0.0000  24.8920 " ConfE="      -5948.3402" DelE="          1.4453"
Co    -0.03411897    0.14373847   -3.46853035       1
Co    -0.00598037    3.50266654   -0.06045323       2
Ni    -0.04518813    0.05732175    3.55025337       3
Co    -0.05161099   -3.48486431    0.04308595       4
Co    -3.66763020    0.03681781    0.00458108       5
Ni     3.55030760    0.02916414   -0.00603124       6
Ni    -1.89503248    0.05509259   -1.80860073       7
Cr     1.78433740   -0.04207729   -1.82024240       8
Ni    -1.89399544    1.79788446   -0.01329854       9
Ni     1.88776173    1.85458391    0.01007064      10
Ni    -0.05046168   -1.68523797   -1.76358870      11
Ni    -0.04440296    1.75565259    1.70030625      12
Cr    -0.07348437   -1.62150017    1.74259996      13
Ni    -1.79387576   -1.69238262   -0.01861864      14
Co     1.64080905   -1.60962593   -0.01801066      15
Cr    -1.78835209    0.03096485    1.68191597      16
Ni     1.71372031    0.05316151    1.73530000      17
Cr     0.06763715    0.83430997   -0.86190321      18
          18
Lattice="  24.8920   0.0000   0.0000   0.0000  24.8920   0.0000   0.0000   0.0000  24.8920 " ConfE="      -5949.7849" DelE="          0.0006"
Co    -0.01448974    0.06722847   -3.54488581       1
Co    -0.02445305    3.59243696    0.02578340       2
Ni    -0.04869828    0.04075461    3.57554362       3
Co    -0.04896847   -3.51718936    0.06297444       4
Co    -3.62585906    0.04044304    0.00634261       5
Ni     3.52358733    0.03224313   -0.00570391       6
Ni    -1.75778788    0.03895722   -1.74780598       7
Cr     1.67368231   -0.03227202   -1.78498646       8
Ni    -1.79433421    1.75307854    0.00569702       9
Ni     1.70648397    1.76183523   -0.02753937      10
Ni    -0.03400819   -1.72228426   -1.74518217      11
Ni    -0.06253647    1.74746636    1.75871610      12
Cr    -0.08100923   -1.65935666    1.78488550      13
Ni    -1.78645833   -1.72358731    0.01641631      14
Co     1.65681504   -1.65675633    0.00207430      15
Cr    -1.82811190   -0.00258019    1.75852470      16
Ni     1.70389018    0.02070422    1.76279007      17
Cr    -0.00903491    1.76896361   -1.75103617      18
