          18
Lattice="  24.8920   0.0000   0.0000   0.0000  24.8920   0.0000   0.0000   0.0000  24.8920 " ConfE="      -5949.9259" DelE="          0.0000"
Ni    -0.01077633   -0.04456319   -3.52786535       1
Co    -0.04685773    3.37695920   -0.01533851       2
Co     3.56167041   -0.08744418    0.01330531       3
Co    -3.54856248   -0.07408685   -0.00435084       4
Cr     0.01616699   -3.61467979    0.05890721       5
Cr    -0.00435755   -0.03882107    3.57614786       6
Ni     1.74909232   -0.04891056   -1.76285144       7
Co     1.77669112    1.74231729    0.03662275       8
Cr    -1.78601673    1.76553664    0.03818547       9
Ni    -0.00947766   -1.84213481   -1.74979575      10
Co    -1.76903191   -0.03194433   -1.70338890      11
Co    -0.01734251    1.69385089    1.82571682      12
Co     1.77528322   -1.85662925    0.03991975      13
Cr     1.83775997    0.05660937    1.72057326      14
Cr    -1.85154124   -0.01210773    1.71717303      15
Cr    -1.76113641   -1.85545511    0.03845676      16
Co     0.00997687   -1.78374876    1.80298874      17
Ni     0.00000000    0.00000000    0.00000000      18
          18
Lattice="  24.8920   0.0000   0.0000   0.0000  24.8920   0.0000   0.0000   0.0000  24.8920 " ConfE="      -5949.0537" DelE="          0.8722"
Ni    -0.01358903   -0.02437172   -3.49043532       1
Co     0.01366748    3.44930658    0.02917456       2
Co     3.62260931   -0.10881739    0.02848175       3
Co    -3.60286262   -0.07846994    0.01106708       4
Cr    -0.00350784   -3.62191220    0.04595081       5
Cr     0.00134129   -0.03410224    3.59335701       6
Ni     1.84072574   -0.11024598   -1.76529084       7
Co     1.94359738    1.74441616    0.11141933       8
Cr    -1.96824475    1.74977378    0.11283690       9
Ni    -0.01127711   -1.80410226   -1.73136517      10
Co    -1.90611782   -0.11717936   -1.73491901      11
Co    -0.02044411    1.65223608    1.73021440      12
Co     1.75609323   -1.82176250    0.03929017      13
Cr     1.75744243    0.04565032    1.66839177      14
Cr    -1.75173278   -0.02602062    1.68933390      15
Cr    -1.72668989   -1.77786595    0.02654555      16
Co     0.00841418   -1.75873967    1.76778633      17
Ni    -0.04330647    1.13070205   -0.99943228      18
          18
Lattice="  24.8920   0.0000   0.0000   0.0000  24.8920   0.0000   0.0000   0.0000  24.8920 " ConfE="      -5949.6384" DelE="          0.2876"
Ni    -0.00498937   -0.06549360   -3.56682827       1
Co     0.01132245    3.48295372    0.04037929       2
Co     3.59186694   -0.09493209    0.01696462       3
Co    -3.58184094   -0.08416457   -0.00136604       4
Cr     0.00881244   -3.63124749    0.05568995       5
Cr    -0.00054170   -0.04116762    3.60933508       6
Ni     1.75005278   -0.07826235   -1.73908292       7
Co     1.77254366    1.70577704    0.05143593       8
Cr    -1.77757411    1.69125682    0.05394693       9
Ni    -0.00290609   -1.81392916   -1.72695988      10
Co    -1.74424334   -0.06261160   -1.64360167      11
Co    -0.02539912    1.63725684    1.74306977      12
Co     1.75889049   -1.83032214    0.04883585      13
Cr     1.77777835    0.04627832    1.69350838      14
Cr    -1.77654740   -0.02866685    1.71022827      15
Cr    -1.72758204   -1.80518715    0.04247987      16
Co     0.01035608   -1.75967356    1.77527165      17
Ni    -0.00135423    1.68936152   -1.72542020      18
