          18
Lattice="  24.8920   0.0000   0.0000   0.0000  24.8920   0.0000   0.0000   0.0000  24.8920 " ConfE="      -5940.6050" DelE="          0.0000"
Co    -3.36868594   -0.04859227   -0.17389599       1
Cr     0.01294541   -0.03882712    3.13943950       2
Co     3.72523576   -0.04559229   -0.20580316       3
Cr     0.18858085   -0.03586167   -3.77791582       4
Co     0.16148357   -3.64238113   -0.19306800       5
Cr     0.19473663    3.52810382   -0.22121214       6
Ni    -1.61694989   -1.85179360   -0.18399737       7
Co    -1.60774252    1.71701523   -0.17800990       8
Cr     0.17207510   -1.85660654    1.54507167       9
Co     0.14393634    1.76819896    1.56883472      10
Cr    -1.57310708   -0.06650745   -1.95320792      11
Co     1.95075721   -0.04517867    1.57277401      12
Cr     1.94132526   -0.03401160   -1.96618981      13
Cr     0.19235799   -1.84492256   -1.93587461      14
Cr     0.18248624    1.79646582   -1.95902028      15
Co     1.89773932   -1.77425699   -0.23191595      16
Cr     1.93189863    1.72791512   -0.18518994      17
Cr     0.00000000    0.00000000    0.00000000      18
          18
Lattice="  24.8920   0.0000   0.0000   0.0000  24.8920   0.0000   0.0000   0.0000  24.8920 " ConfE="      -5940.2557" DelE="          0.3493"
Co    -3.32990503   -0.05137282   -0.17999279       1
Cr     0.21398872   -0.01268698    3.32240895       2
Co     3.70493595   -0.04698235   -0.19615281       3
Cr     0.17466081   -0.04238799   -3.75903242       4
Co     0.16875903   -3.71061911   -0.19770320       5
Cr     0.24278563    3.63488640   -0.26341837       6
Ni    -1.62609328   -1.94736624   -0.20597017       7
Co    -1.62533863    1.84412250   -0.21069470       8
Cr     0.27275752   -1.94347173    1.49883119       9
Co     0.19344294    1.90031832    1.58257895      10
Cr    -1.50377443   -0.07591009   -1.88754748      11
Co     1.84685793   -0.02779669    1.52833179      12
Cr     1.86829202   -0.02849109   -1.92638186      13
Cr     0.17997059   -1.83412712   -1.84064795      14
Cr     0.13789865    1.74539461   -1.85600554      15
Co     1.87042385   -1.77077755   -0.22885431      16
Cr     1.84293748    1.68852340   -0.14371266      17
Cr    -0.80244994    0.00980356    0.83153201      18
          18
Lattice="  24.8920   0.0000   0.0000   0.0000  24.8920   0.0000   0.0000   0.0000  24.8920 " ConfE="      -5940.7042" DelE="         -0.0992"
Co    -3.40872198   -0.05280785   -0.21315351       1
Cr     0.18714622   -0.03671545    3.31437149       2
Co     3.73803715   -0.04861122   -0.21605782       3
Cr     0.18553082   -0.03066715   -3.76967402       4
Co     0.17236580   -3.68046970   -0.18724658       5
Cr     0.21949509    3.57933868   -0.20767791       6
Ni    -1.58935311   -1.87988946   -0.19561216       7
Co    -1.57704097    1.73227088   -0.20578591       8
Cr     0.25898183   -1.79475679    1.47703213       9
Co     0.19129289    1.73789618    1.51856971      10
Cr    -1.37035166   -0.05610332   -1.78501232      11
Co     1.89144837   -0.04200513    1.50725475      12
Cr     1.83513843   -0.01793130   -1.90233484      13
Cr     0.22046384   -1.87581411   -1.89122157      14
Cr     0.20643535    1.83426114   -1.92055548      15
Co     1.90181820   -1.78747220   -0.24804777      16
Cr     1.93442520    1.73859449   -0.17089429      17
Cr    -1.45215171   -0.01490307    1.39297906      18
