          18
Lattice="  24.8920   0.0000   0.0000   0.0000  24.8920   0.0000   0.0000   0.0000  24.8920 " ConfE="      -5938.0856" DelE="          0.0000"
Ni     0.02335451    0.00867115    3.54153327       1
Ni     3.47998221    0.00254085    0.03653567       2
Ni    -0.02292420    0.02290581   -3.59792009       3
Ni    -3.54836662    0.00709199   -0.03249516       4
Ni    -0.01173399    3.53303371   -0.00124327       5
Cr     0.04540451   -3.49453352    0.01426307       6
Ni     0.03131873   -1.72513703    1.77855580       7
Ni     1.73344960    1.75607027   -0.01882477       8
Ni    -0.01748708    1.74485488    1.76356608       9
Cr     1.77117798   -1.72144451    0.01587268      10
Ni    -0.00086868   -1.77392365   -1.80607353      11
Ni    -1.79243820    0.02279499   -1.80115691      12
Ni    -0.01504333    1.75294846   -1.80407645      13
Co    -1.77003630   -1.77876580   -0.03156777      14
Co    -1.83722974    0.04419374    1.76659245      15
Co     1.78111146   -0.04055105   -1.82336880      16
Cr    -1.79193233    1.78197527    0.00134381      17
Ni     0.00000000    0.00000000    0.00000000      18
          18
Lattice="  24.8920   0.0000   0.0000   0.0000  24.8920   0.0000   0.0000   0.0000  24.8920 " ConfE="      -5936.5575" DelE="          1.5281"
Ni     0.02191496   -0.00005905    3.47707713       1
Ni     3.44458748    0.01703296    0.01007868       2
Ni    -0.07089527    0.03305057   -3.51427414       3
Ni    -3.46075845   -0.02300654   -0.07489158       4
Ni    -0.02217841    3.63573523   -0.00970553       5
Cr     0.00072471   -3.60834261    0.01096122       6
Ni    -0.08134165   -1.91201904    1.80876997       7
Ni     1.74333858    1.90809162   -0.08226336       8
Ni    -0.08830900    1.87607344    1.75011961       9
Cr     1.77012790   -1.90798470   -0.09349532      10
Ni     0.02055527   -1.89799680   -1.81614633      11
Ni    -0.95638849   -0.00260116   -0.84289051      12
Ni     0.00371588    1.88365569   -1.81762323      13
Co    -1.83732780   -2.00207196   -0.01329278      14
Co    -1.77923026    0.00091534    1.72152032      15
Co     1.71590255   -0.02926605   -1.76166691      16
Cr    -1.83069672    1.92646389    0.02159628      17
Ni     1.06701178   -0.06299684    1.02357898      18
          18
Lattice="  24.8920   0.0000   0.0000   0.0000  24.8920   0.0000   0.0000   0.0000  24.8920 " ConfE="      -5938.0034" DelE="          0.0822"
Ni     0.00201346    0.00819181    3.56294916       1
Ni     3.54349399    0.01736978    0.00145743       2
Ni    -0.02465370    0.02107810   -3.59674945       3
Ni    -3.57406871    0.00106667   -0.03231183       4
Ni    -0.01741244    3.54593832   -0.00215975       5
Cr     0.02739465   -3.53030441    0.00943436       6
Ni     0.00172783   -1.72384287    1.74519612       7
Ni     1.71566086    1.74633813   -0.03362743       8
Ni    -0.03724371    1.74118767    1.72913755       9
Cr     1.73600478   -1.71063352   -0.03303393      10
Ni    -0.00850804   -1.76137481   -1.77514716      11
Ni    -1.78218248    0.01884754   -1.77019110      12
Ni    -0.03073468    1.71124550   -1.75015099      13
Co    -1.74003636   -1.74143059   -0.02724588      14
Co    -1.80769554    0.05381712    1.72708048      15
Co     1.76230572   -0.05502012   -1.75533868      16
Cr    -1.78961319    1.74790479    0.02008789      17
Ni     1.76935312    0.00871343    1.75547174      18
