          18
Lattice="  24.8920   0.0000   0.0000   0.0000  24.8920   0.0000   0.0000   0.0000  24.8920 " ConfE="      -5949.2663" DelE="          0.0000"
Ni    -0.01490136    0.03597356    3.48891542       1
Cr     3.49956340    0.12267004   -0.00136188       2
Ni    -0.01817192    0.00309460   -3.61304111       3
Co    -3.55906932    0.03026128   -0.06536020       4
Cr     0.01301051   -3.48304375   -0.00822260       5
Ni    -0.01124787    3.51595255   -0.04589244       6
Cr    -0.06044003   -1.62568999    1.65373312       7
Co    -0.06095248    1.70830004    1.67942664       8
Ni     1.79647107   -1.65809624   -0.00032163       9
Co     1.78647973    1.69549756   -0.01463409      10
Co    -1.83266536    0.02423412    1.70951495      11
Co     1.75581326    0.05156412   -1.85313003      12
Ni    -1.79010026   -0.00408336   -1.82484717      13
Co    -1.80203987   -1.76650853   -0.06200763      14
Cr    -1.76401976    1.69423432   -0.02102542      15
Co    -0.01708601   -1.75075355   -1.77797296      16
Ni    -0.01416060    1.77920026   -1.83237293      17
Co     0.00000000    0.00000000    0.00000000      18
          18
Lattice="  24.8920   0.0000   0.0000   0.0000  24.8920   0.0000   0.0000   0.0000  24.8920 " ConfE="      -5948.5866" DelE="          0.6797"
Ni    -0.01038235    0.04504132    3.45477588       1
Cr     3.41856227    0.09824448    0.01582707       2
Ni    -0.00612650    0.00475583   -3.60303833       3
Co    -3.54742712    0.02601926   -0.05443931       4
Cr     0.00745378   -3.57727159   -0.02942181       5
Ni    -0.03381749    3.57979710   -0.05262643       6
Cr    -0.08561414   -1.81281704    1.68326384       7
Co    -0.11730854    1.88897563    1.72805029       8
Ni     1.82452549   -1.86079493   -0.07496613       9
Co     1.80113850    1.87329056   -0.06184282      10
Co    -1.75027650    0.04758872    1.66576793      11
Co     1.72398378    0.03068619   -1.74632904      12
Ni    -1.74072944   -0.00076079   -1.77058613      13
Co    -1.74549432   -1.75947399   -0.03140253      14
Cr    -1.68727195    1.67247859    0.03137291      15
Co    -0.01508104   -1.76028318   -1.74702188      16
Ni    -0.01142672    1.77780740   -1.79366752      17
Co     0.78311899   -0.00119872    0.81860859      18
          18
Lattice="  24.8920   0.0000   0.0000   0.0000  24.8920   0.0000   0.0000   0.0000  24.8920 " ConfE="      -5949.4646" DelE="         -0.1984"
Ni    -0.04327680    0.04293920    3.52342856       1
Cr     3.54857671    0.10076610   -0.02853532       2
Ni    -0.01766532    0.00585363   -3.62189157       3
Co    -3.57431399    0.02466479   -0.06876050       4
Cr     0.00638872   -3.53301436   -0.01308560       5
Ni    -0.01756301    3.54314997   -0.05196159       6
Cr    -0.12318376   -1.62153379    1.60184293       7
Co    -0.09394732    1.66625178    1.59328919       8
Ni     1.73612243   -1.65987931   -0.04438389       9
Co     1.77153338    1.71650606   -0.06238002      10
Co    -1.79596790    0.00804070    1.67145503      11
Co     1.74664962    0.05595209   -1.83233860      12
Ni    -1.77300372    0.00540470   -1.79302859      13
Co    -1.77593134   -1.75728111   -0.06132178      14
Cr    -1.75231365    1.68749910   -0.02354832      15
Co    -0.03390605   -1.73181618   -1.76285571      16
Ni    -0.02164502    1.76513524   -1.81022662      17
Co     1.72814717    0.02228583    1.72346476      18
