          18
Lattice="  24.8920   0.0000   0.0000   0.0000  24.8920   0.0000   0.0000   0.0000  24.8920 " ConfE="      -5945.9431" DelE="          0.0000"
Ni     0.00418089    0.09521854   -3.56526662       1
Ni    -3.54099423    0.11909646   -0.05305266       2
Co    -0.02385054   -3.38976091   -0.11010419       3
Co    -0.01947339    3.68464435   -0.03014572       4
Co     3.52897629    0.08283760   -0.06841737       5
Co     0.02889547    0.13315069    3.52697393       6
Ni    -1.72011487    0.07812788   -1.79559549       7
Ni    -0.02005571    1.88771629   -1.78469146       8
Cr     1.74996310    0.07157359   -1.73116967       9
Ni    -0.03368122    1.86439162    1.73077989      10
Co     1.72085076   -1.67217903   -0.12552085      11
Co    -1.77451632   -1.66213524   -0.03155175      12
Co     1.75448215    1.87796964   -0.01034737      13
Co     1.77100310    0.10252546    1.71717983      14
Co    -0.00521226   -1.63916042    1.73375861      15
Cr    -1.77958249    1.90425090   -0.02555380      16
Co    -1.81090036    0.12127941    1.73335493      17
Cr     0.00000000    0.00000000    0.00000000      18
          18
Lattice="  24.8920   0.0000   0.0000   0.0000  24.8920   0.0000   0.0000   0.0000  24.8920 " ConfE="      -5945.1335" DelE="          0.8096"
Ni    -0.01008863    0.09172802   -3.54292122       1
Ni    -3.59463570    0.14172460   -0.04868295       2
Co    -0.01408266   -3.38548310   -0.08580502       3
Co    -0.01253675    3.67413540   -0.03817467       4
Co     3.59994948    0.10481228   -0.06145154       5
Co     0.03481342    0.12696012    3.52832290       6
Ni    -1.88544447    0.15066015   -1.85223099       7
Ni    -0.02370135    1.81173168   -1.76190411       8
Cr     1.85294591    0.11984363   -1.73630111       9
Ni    -0.01637180    1.81532644    1.68682419      10
Co     1.88481179   -1.69173299   -0.01942493      11
Co    -1.90203455   -1.68237641    0.00276761      12
Co     1.75359230    1.82014508   -0.03465865      13
Co     1.76209792    0.09250410    1.68212564      14
Co    -0.00156721   -1.61605694    1.66540180      15
Cr    -1.72534504    1.81262293   -0.02643368      16
Co    -1.78726978    0.11933045    1.67810864      17
Cr    -0.02891937   -0.87698775   -0.90250382      18
          18
Lattice="  24.8920   0.0000   0.0000   0.0000  24.8920   0.0000   0.0000   0.0000  24.8920 " ConfE="      -5945.7372" DelE="          0.2059"
Ni    -0.00775902    0.11936391   -3.58760646       1
Ni    -3.56690669    0.13243536   -0.04980810       2
Co    -0.02794745   -3.45447479   -0.06420580       3
Co    -0.01849817    3.70717344   -0.02972728       4
Co     3.56069704    0.09712023   -0.06593125       5
Co     0.03121065    0.13927393    3.54660030       6
Ni    -1.74392080    0.13080563   -1.77526912       7
Ni    -0.02673225    1.86753448   -1.75921563       8
Cr     1.73244401    0.12155390   -1.68817614       9
Ni    -0.03646087    1.82508281    1.68860350      10
Co     1.72016001   -1.62586170   -0.07097144      11
Co    -1.76900863   -1.65026358   -0.03100714      12
Co     1.75527406    1.87435760   -0.01156463      13
Co     1.75829322    0.11096276    1.70804061      14
Co    -0.01081686   -1.62030679    1.69225502      15
Cr    -1.78737594    1.90942215   -0.01630747      16
Co    -1.79729098    0.12098241    1.69844670      17
Cr    -0.03849526   -1.62670199   -1.65629537      18
