          18
Lattice="  24.8920   0.0000   0.0000   0.0000  24.8920   0.0000   0.0000   0.0000  24.8920 " ConfE="      -5922.7921" DelE="          0.0000"
Co    -0.02963498    3.53407439   -0.02962186       1
Ni     3.45861181    0.00863397    0.01456350       2
Cr    -0.02792410   -3.54213565    0.08298708       3
Co    -3.63904108    0.00407799    0.01606443       4
Cr    -0.05139366   -0.05388083   -3.51487949       5
Co    -0.03293216    0.01904414    3.58117542       6
Ni     0.00321109    1.75377677   -1.74943729       7
Cr    -0.09235255    1.71584077    1.75205146       8
Ni     1.72993134   -0.02823087   -1.79258491       9
Cr     1.64847945    0.05826890    1.73425436      10
Ni    -1.85110815    1.76761333   -0.00864697      11
Cr     1.70890801   -1.81067880    0.08850516      12
Ni    -1.83044413   -1.76925199    0.00308952      13
Cr    -1.82243032    0.02071147   -1.77156290      14
Co    -1.82934292    0.00140407    1.77295826      15
Ni    -0.03881176   -1.80075562   -1.75953764      16
Co    -0.04406125   -1.74243173    1.79400242      17
Co     0.00000000    0.00000000    0.00000000      18
          18
Lattice="  24.8920   0.0000   0.0000   0.0000  24.8920   0.0000   0.0000   0.0000  24.8920 " ConfE="      -5922.2374" DelE="          0.5547"
Co    -0.00349642    3.46538256   -0.03439301       1
Ni     3.42708498    0.02130713    0.00743541       2
Cr    -0.01139748   -3.53562247    0.06597372       3
Co    -3.63589726    0.00553868    0.01656681       4
Cr    -0.09943514   -0.07388609   -3.61527930       5
Co    -0.03806640    0.00794826    3.62035102       6
Ni    -0.04993617    1.76386985   -1.91269544       7
Cr    -0.19164109    1.75361600    1.91298597       8
Ni     1.74079548   -0.03058941   -1.92637199       9
Cr     1.71603437   -0.01392482    1.90977859      10
Ni    -1.79019898    1.72816781   -0.01271588      11
Cr     1.64753655   -1.70149883    0.07602684      12
Ni    -1.77441789   -1.72206790   -0.00406417      13
Cr    -1.79889942    0.03392650   -1.77243869      14
Co    -1.81463448    0.00752372    1.77607540      15
Ni    -0.03113690   -1.74213294   -1.76305065      16
Co    -0.00852596   -1.66952486    1.75469970      17
Co     0.75586570    0.83516355    0.09497280      18
          18
Lattice="  24.8920   0.0000   0.0000   0.0000  24.8920   0.0000   0.0000   0.0000  24.8920 " ConfE="      -5922.8122" DelE="         -0.0201"
Co    -0.06675308    3.56816905   -0.02470162       1
Ni     3.50614502   -0.02067288    0.02109407       2
Cr    -0.02826804   -3.56680205    0.07754332       3
Co    -3.65166812    0.00433921    0.02063328       4
Cr    -0.06057569   -0.06475588   -3.54870437       5
Co    -0.03311528    0.02273911    3.60128397       6
Ni    -0.05316377    1.70852857   -1.74619659       7
Cr    -0.12529892    1.69367788    1.74676611       8
Ni     1.69899801   -0.04808897   -1.77196210       9
Cr     1.61026671    0.03307838    1.71436030      10
Ni    -1.82863270    1.74388021   -0.00833283      11
Cr     1.67505887   -1.75975718    0.08776122      12
Ni    -1.80941758   -1.74506984    0.00075220      13
Cr    -1.83254480    0.01284039   -1.76523453      14
Co    -1.79962850    0.01238490    1.75081473      15
Ni    -0.04905704   -1.76838036   -1.72910704      16
Co    -0.01729473   -1.68214789    1.73889021      17
Co     1.66045784    1.69721699    0.03351206      18
