          18
Lattice="  24.8920   0.0000   0.0000   0.0000  24.8920   0.0000   0.0000   0.0000  24.8920 " ConfE="      -5923.5229" DelE="          0.0000"
Ni     0.00028781    0.00492095    3.48255707       1
Ni    -3.47595233    0.01030866    0.01295158       2
Ni     0.02824073   -3.53455502   -0.03222418       3
Cr     0.02907250   -0.03761137   -3.52359291       4
Co     3.62479997    0.01013021   -0.00586732       5
Cr     0.03289651    3.53579081   -0.03456972       6
Ni    -0.02605107   -1.72955111    1.72467418       7
Cr    -1.74994896   -1.76931625   -0.03718240       8
Co    -1.71680415    1.76976116    0.00975930       9
Cr    -0.00384135    1.77952560    1.71067728      10
Ni     0.03081239    1.75479962   -1.79897996      11
Co     1.81723634   -1.71675637   -0.04188690      12
Co     0.02709737   -1.74242612   -1.78856932      13
Co     1.83752504    0.03535583    1.75481623      14
Co    -1.73964182    0.02051624   -1.84054413      15
Cr     1.86791571    0.01909698   -1.73293088      16
Co     1.84015709    1.75162504   -0.03965782      17
Ni     0.00000000    0.00000000    0.00000000      18
          18
Lattice="  24.8920   0.0000   0.0000   0.0000  24.8920   0.0000   0.0000   0.0000  24.8920 " ConfE="      -5922.9791" DelE="          0.5438"
Ni    -0.00835797   -0.00434126    3.44126670       1
Ni    -3.40667684    0.01709429    0.01094236       2
Ni     0.05175806   -3.59008199   -0.04278931       3
Cr     0.03108855   -0.03496275   -3.55350031       4
Co     3.64028734    0.01420425    0.00079633       5
Cr     0.05736708    3.58502513   -0.06866502       6
Ni     0.02341458   -1.88873620    1.76532731       7
Cr    -1.74784492   -1.93906835   -0.12698070       8
Co    -1.75917542    1.99517907   -0.10811580       9
Cr     0.04416258    1.93970220    1.75341226      10
Ni     0.05053823    1.73767751   -1.78593915      11
Co     1.77422084   -1.67903243   -0.03556269      12
Co     0.01547998   -1.71582024   -1.73071091      13
Co     1.78099539    0.04050572    1.72082286      14
Co    -1.70877625    0.03097658   -1.81118768      15
Cr     1.81250763    0.01008686   -1.66711523      16
Co     1.81616440    1.73714905   -0.03816916      17
Ni    -0.72092004    0.00851993    0.63767098      18
          18
Lattice="  24.8920   0.0000   0.0000   0.0000  24.8920   0.0000   0.0000   0.0000  24.8920 " ConfE="      -5923.4131" DelE="          0.1098"
Ni     0.03390314    0.00217534    3.53150964       1
Ni    -3.54836637    0.00090874   -0.02115006       2
Ni     0.04131330   -3.55324888   -0.03974499       3
Cr     0.04546597   -0.03334078   -3.54660927       4
Co     3.65520267    0.01368223   -0.00278880       5
Cr     0.05156591    3.55996599   -0.04234922       6
Ni     0.01903970   -1.70910851    1.66801122       7
Cr    -1.69648377   -1.76052550   -0.13096445       8
Co    -1.68918465    1.76173854   -0.03614366       9
Cr     0.07580961    1.74408565    1.66146570      10
Ni     0.06161950    1.69336468   -1.76072466      11
Co     1.79599463   -1.66126483   -0.06447335      12
Co     0.03755189   -1.70065478   -1.73614980      13
Co     1.78967158    0.05307624    1.72545202      14
Co    -1.72265109   -0.00299434   -1.77493979      15
Cr     1.87648384    0.00764468   -1.70415782      16
Co     1.82883236    1.72492914   -0.04697315      17
Ni    -1.71964399   -0.00972637    1.68403349      18
