          18
Lattice="  24.8920   0.0000   0.0000   0.0000  24.8920   0.0000   0.0000   0.0000  24.8920 " ConfE="      -5943.2130" DelE="          0.0000"
Ni     0.04899090    3.51446194    0.08158597       1
Ni     0.03924569    0.01637389    3.66043844       2
Cr     0.10436271    0.08156603   -3.30186441       3
Cr     3.64774963   -0.03819508    0.11851328       4
Co    -3.50074064   -0.00051474    0.11083677       5
Co     0.01620073   -3.50300839    0.12257608       6
Ni     1.80093381    1.75537256    0.06520034       7
Co    -1.73057096    1.72820012    0.09821901       8
Co     1.81010103    0.02281215   -1.66312737       9
Co    -1.69831656    0.02306022   -1.67683960      10
Ni     0.03107217    1.76213946    1.87130986      11
Ni     1.80569946    0.01506440    1.84862103      12
Co     1.81040724   -1.75311146    0.13533248      13
Cr    -1.69397039   -1.70461737    0.13012862      14
Co     0.05881368   -1.78476389   -1.65173319      15
Co    -1.76154347    0.01374909    1.87570566      16
Co     0.02048900   -1.75589656    1.86040195      17
Cr     0.00000000    0.00000000    0.00000000      18
          18
Lattice="  24.8920   0.0000   0.0000   0.0000  24.8920   0.0000   0.0000   0.0000  24.8920 " ConfE="      -5938.9556" DelE="          4.2574"
Ni     0.02121702    3.52487882    0.10099240       1
Ni     0.03979650    0.01677832    3.70978012       2
Cr     0.18392414    0.23931104   -3.49329118       3
Cr     3.59590586   -0.05163143    0.08745266       4
Co    -3.65568469    0.08970929    0.14726411       5
Co     0.16415591   -3.75568505    0.20923927       6
Ni     1.72023734    1.70811849    0.04157181       7
Co    -1.75882724    1.67297743    0.13380176       8
Co     1.82836696    0.06156662   -1.73230038       9
Co    -1.50809864    0.10563914   -1.69489116      10
Ni    -0.00291890    1.74146278    1.87655322      11
Ni     1.76638356    0.00422227    1.82158264      12
Co     1.67543949   -1.72796390    0.05346907      13
Cr    -0.91358436   -2.04329689   -0.50162403      14
Co     0.29913517   -1.68148105   -2.22804750      15
Co    -1.88769950    0.25992202    2.22291389      16
Co     0.01196687   -1.73420863    1.90544512      17
Cr    -1.79328723   -1.05089199    0.51459511      18
          18
Lattice="  24.8920   0.0000   0.0000   0.0000  24.8920   0.0000   0.0000   0.0000  24.8920 " ConfE="      -5943.2131" DelE="         -0.0000"
Ni     0.04895494    3.51520265    0.08206846       1
Ni     0.03951697    0.01635974    3.65990782       2
Cr     0.10395871    0.08372713   -3.29956189       3
Cr     3.64815148   -0.03820164    0.11866287       4
Co    -3.50107915   -0.00034308    0.11077763       5
Co     0.01602846   -3.50310138    0.12263706       6
Ni     1.80095417    1.75553810    0.06510240       7
Co    -1.73025453    1.72812902    0.09846702       8
Co     1.81098111    0.02269346   -1.66300536       9
Co    -1.69951925    0.02267666   -1.67633313      10
Ni     0.03140194    1.76234699    1.87085696      11
Ni     1.80582611    0.01508421    1.84837261      12
Co     1.81028768   -1.75301717    0.13532050      13
Cr     0.00024577   -0.00005093   -0.00100545      14
Co     0.05864218   -1.78451043   -1.65173524      15
Co    -1.76140674    0.01375328    1.87516750      16
Co     0.02045782   -1.75579541    1.86018016      17
Cr    -1.69414654   -1.70463370    0.13040747      18
