          18
Lattice="  24.8920   0.0000   0.0000   0.0000  24.8920   0.0000   0.0000   0.0000  24.8920 " ConfE="      -5923.1643" DelE="          0.0000"
Ni     0.01111184   -3.50268884   -0.01240775       1
Ni     3.55286842   -0.03452066   -0.00020294       2
Ni     0.04874422    3.60190279   -0.03118685       3
Co     0.02372292   -0.01523917    3.45951375       4
Co    -3.52959662    0.04643654   -0.07406522       5
Co    -0.01889027    0.01032104   -3.56853167       6
Ni    -1.74411299    0.00455643    1.71873981       7
Co    -1.73686894   -1.73554973   -0.03657957       8
Cr     1.67905633   -1.74159160    0.07696793       9
Ni     1.78047255    0.04211952   -1.78932346      10
Ni     0.05413079    1.83546791   -1.78915665      11
Ni     0.03434956    1.83856107    1.72872564      12
Cr     1.75463036   -0.03765884    1.78445569      13
Co     0.01426605   -1.73216872   -1.85345185      14
Cr    -1.75333773    0.03752952   -1.75833986      15
Co    -1.77453344    1.81230694   -0.04595857      16
Co     1.84513289    1.78228109    0.01826607      17
Cr     0.00000000    0.00000000    0.00000000      18
          18
Lattice="  24.8920   0.0000   0.0000   0.0000  24.8920   0.0000   0.0000   0.0000  24.8920 " ConfE="      -5918.9760" DelE="          4.1883"
Ni     0.00872477   -3.58466931    0.00526021       1
Ni     3.58038654   -0.07143789    0.05405596       2
Ni     0.05648396    3.66498201   -0.01087577       3
Co     0.02511255   -0.01211011    3.46471965       4
Co    -3.55009935    0.04537379   -0.05388254       5
Co    -1.14279668   -0.18428808   -3.55658920       6
Ni    -1.64080379   -0.01299972    1.60542530       7
Co    -1.71340897   -1.79080118   -0.01947063       8
Cr     1.51678634   -1.77523832    0.23051231       9
Ni     1.03743957    0.14401200   -3.38802388      10
Ni     0.09008795    1.88148094   -1.81109192      11
Ni     0.05475850    1.81446097    1.67049398      12
Cr     1.71604994   -0.01071327    1.75639235      13
Co     0.01121536   -1.74232883   -1.89959639      14
Cr    -1.56737719    0.02053592   -1.35523696      15
Co    -1.76210778    1.85675472   -0.03176896      16
Co     1.86251196    1.83646454    0.01826371      17
Cr     1.49023606   -0.05245233   -1.17529423      18
          18
Lattice="  24.8920   0.0000   0.0000   0.0000  24.8920   0.0000   0.0000   0.0000  24.8920 " ConfE="      -5922.8345" DelE="          0.3298"
Ni     0.00743037   -3.50905751   -0.01132711       1
Ni     3.55182337   -0.03583743    0.00315424       2
Ni     0.04488629    3.59937507   -0.03345084       3
Co     0.01923127   -0.01884104    3.45893760       4
Co    -3.52547687    0.05257443   -0.07578685       5
Co    -1.74745231    0.04074514   -1.83819948       6
Ni    -1.74342719    0.00254307    1.71919514       7
Co    -1.72919792   -1.73435764   -0.03192887       8
Cr     1.65982066   -1.73960968    0.09603206       9
Ni     0.03120273    0.07065929   -3.59376036      10
Ni     0.06196244    1.82976540   -1.79130370      11
Ni     0.03120453    1.83339373    1.72522130      12
Cr     1.76108605   -0.03794546    1.80771533      13
Co     0.03566897   -1.72214465   -1.85975061      14
Cr    -0.00952732   -0.00561879   -0.01912564      15
Co    -1.77446728    1.80846696   -0.04773857      16
Co     1.83279245    1.75971910   -0.00177475      17
Cr     1.80483296    0.00748850   -1.81429890      18
