          18
Lattice="  24.8920   0.0000   0.0000   0.0000  24.8920   0.0000   0.0000   0.0000  24.8920 " ConfE="      -5941.6031" DelE="          0.0000"
Cr     0.00234892   -3.46602009    0.00593668       1
Ni    -3.60697816    0.02663837   -0.00124195       2
Cr     3.45894483   -0.01174588    0.01326158       3
Ni    -0.04489652   -0.01332123   -3.55424715       4
Co    -0.09451805    0.04894347    3.53751260       5
Co    -0.09628254    3.57247351   -0.03925349       6
Ni    -0.00624365   -1.73757138    1.73006425       7
Cr     1.73800500   -0.05996723   -1.73614614       8
Cr     0.00792461   -1.74003601   -1.71408574       9
Co     1.77241024   -0.00051486    1.71105598      10
Ni     1.71952594    1.83041330    0.00663984      11
Ni    -0.02689419    1.76857583   -1.78376062      12
Co    -1.82093274   -1.71906340   -0.01935474      13
Co    -1.81889742    0.00165438   -1.80303148      14
Co    -1.82704817    0.05431202    1.77058483      15
Cr    -1.77860754    1.76187704   -0.00424011      16
Co    -0.07879178    1.78782927    1.76406755      17
Ni     0.00000000    0.00000000    0.00000000      18
          18
Lattice="  24.8920   0.0000   0.0000   0.0000  24.8920   0.0000   0.0000   0.0000  24.8920 " ConfE="      -5941.1350" DelE="          0.4682"
Cr     0.04199293   -3.36240657    0.01122931       1
Ni    -3.60656606    0.01441906   -0.00180803       2
Cr     3.38421905   -0.07049414   -0.00859065       3
Ni    -0.07028158    0.02405317   -3.61696411       4
Co    -0.11038757    0.07771965    3.59218775       5
Co    -0.08411558    3.56899796   -0.04483407       6
Ni    -0.06600331   -1.73717531    1.89154782       7
Cr     1.78496322    0.00749606   -1.97689851       8
Cr    -0.06791413   -1.76206651   -1.92439201       9
Co     1.77559265    0.02805655    1.90356157      10
Ni     1.70323858    1.73939257    0.00038301      11
Ni    -0.02258355    1.73740937   -1.77539580      12
Co    -1.74961849   -1.69200468   -0.02520895      13
Co    -1.79198415    0.00770598   -1.79655036      14
Co    -1.80413642    0.05922548    1.74459929      15
Cr    -1.68399155    1.65318333    0.03887912      16
Co    -0.06851440    1.73717345    1.71419860      17
Ni     0.66855076   -0.64935481   -0.04598804      18
          18
Lattice="  24.8920   0.0000   0.0000   0.0000  24.8920   0.0000   0.0000   0.0000  24.8920 " ConfE="      -5941.7586" DelE="         -0.1555"
Cr    -0.06579025   -3.53874271    0.00231374       1
Ni    -3.62665893    0.02570888   -0.00272546       2
Cr     3.53760077    0.04484116   -0.01081330       3
Ni    -0.06182702   -0.00152726   -3.57750886       4
Co    -0.10559333    0.06070050    3.55525757       5
Co    -0.09485792    3.60033584   -0.04208293       6
Ni    -0.04166914   -1.69637547    1.71339587       7
Cr     1.68550597   -0.01085108   -1.74748661       8
Cr    -0.07693095   -1.68441450   -1.70670244       9
Co     1.72141927    0.03928577    1.70044005      10
Ni     1.69925909    1.78931814   -0.00031150      11
Ni    -0.04490519    1.73645328   -1.73617030      12
Co    -1.76248297   -1.68648371   -0.04281256      13
Co    -1.80029672    0.01342520   -1.77471716      14
Co    -1.80954140    0.07015474    1.72430268      15
Cr    -1.73433009    1.70878778    0.05648563      16
Co    -0.09619934    1.76533053    1.70509708      17
Ni     1.71210139   -1.74497931   -0.02533490      18
