          18
Lattice="  24.8920   0.0000   0.0000   0.0000  24.8920   0.0000   0.0000   0.0000  24.8920 " ConfE="      -5940.1928" DelE="          0.0000"
Ni    -0.01354013    3.51953195    0.03466911       1
Co     0.03302703   -0.03603504   -3.49224659       2
Cr    -3.58256364    0.00799245    0.02117474       3
Cr     3.57422833   -0.00238392   -0.03628071       4
Co     0.02663733    0.00828161    3.64253582       5
Co    -0.02850209   -3.56613143    0.03330604       6
Ni    -1.71302720    0.00108861   -1.72715672       7
Ni    -1.75873049    1.75150819    0.05167108       8
Ni     1.73934444    1.75715269    0.04474915       9
Co     1.78362202   -0.00783252   -1.74217462      10
Ni    -1.75595102   -0.01100188    1.82159041      11
Ni     1.78576282   -0.00193014    1.81696864      12
Ni     1.75401522   -1.78374191    0.02038542      13
Ni    -0.00530890   -1.78540001    1.81087456      14
Cr    -0.02542366   -1.87732016   -1.75357702      15
Co    -0.00139666    1.77886357    1.91109146      16
Co    -1.81067231   -1.78681120    0.01315710      17
Ni     0.00000000    0.00000000    0.00000000      18
          18
Lattice="  24.8920   0.0000   0.0000   0.0000  24.8920   0.0000   0.0000   0.0000  24.8920 " ConfE="      -5939.4815" DelE="          0.7113"
Ni    -0.01997035    3.47830898    0.03104360       1
Co     0.03750816   -0.02544015   -3.43624890       2
Cr    -3.65398071   -0.00395218    0.04267215       3
Cr     3.63560989   -0.00262549   -0.00308025       4
Co     0.02481702    0.01677855    3.65745028       5
Co    -0.03257928   -3.56219943    0.02790903       6
Ni    -1.94227761   -0.04540024   -1.77962193       7
Ni    -1.86975741    1.74634484    0.07917868       8
Ni     1.86190251    1.77897233    0.08769913       9
Co     2.01898399   -0.06520404   -1.81416292      10
Ni    -1.76653647   -0.00329904    1.81655862      11
Ni     1.79142733    0.01044051    1.81947165      12
Ni     1.70509976   -1.70735884    0.00021989      13
Ni    -0.01257744   -1.73405822    1.77638184      14
Cr    -0.03783224   -1.78901849   -1.73844927      15
Co    -0.00303104    1.75233608    1.86704252      16
Co    -1.79438761   -1.74773922   -0.00497661      17
Ni     0.02648082    0.60429046   -0.77777106      18
          18
Lattice="  24.8920   0.0000   0.0000   0.0000  24.8920   0.0000   0.0000   0.0000  24.8920 " ConfE="      -5940.0903" DelE="          0.1025"
Ni    -0.01571136    3.55404740    0.05673623       1
Co     0.02389917   -0.05823810   -3.54212151       2
Cr    -3.61241286   -0.00107499    0.02834665       3
Cr     3.60666062   -0.00091992   -0.02125446       4
Co     0.02385158    0.01103191    3.65785448       5
Co    -0.02536369   -3.58332226    0.03730339       6
Ni    -1.70075831   -0.03078262   -1.68526501       7
Ni    -1.74587857    1.72402711    0.07161461       8
Ni     1.73145737    1.73317652    0.07589420       9
Co     1.77585859   -0.02973682   -1.72124965      10
Ni    -1.73384561   -0.01356567    1.79532697      11
Ni     1.76586542    0.00091531    1.80986712      12
Ni     1.71788249   -1.74214878    0.02212370      13
Ni    -0.00470617   -1.76365791    1.78932014      14
Cr    -0.02318975   -1.83230628   -1.72908414      15
Co    -0.00332633    1.77253921    1.89415577      16
Co    -1.78565753   -1.78056741    0.01370104      17
Ni     0.01283911    1.72562141   -1.71551146      18
