          18
Lattice="  24.8920   0.0000   0.0000   0.0000  24.8920   0.0000   0.0000   0.0000  24.8920 " ConfE="      -5940.1928" DelE="          0.0000"
Ni     0.01365066   -3.51877210   -0.03446041       1
Co     0.03223783    0.03117347   -3.55770340       2
Ni     0.03478008    3.53646695    0.02762442       3
Ni    -0.00976348    0.03310873    3.60354794       4
Ni    -3.53904686   -0.01367029    0.00427081       5
Cr     3.57164319   -0.00416723    0.03861661       6
Ni    -1.74542531   -1.76768858    0.01747992       7
Ni     1.75321846   -1.76192827    0.01071933       8
Ni    -1.72772491    0.00367867   -1.76965182       9
Ni     1.73699354   -0.00955587   -1.75343578      10
Co     0.01207462   -1.73997845    1.87703575      11
Cr     0.06143869    1.83471732   -1.79709998      12
Ni     0.02318510    1.76696131    1.78128071      13
Co    -1.77243559   -0.03109875    1.81286020      14
Cr     1.77158838   -0.00847845    1.83060275      15
Co    -1.75630675    1.82171469   -0.01258806      16
Co     1.83108024    1.74531628    0.00715214      17
Ni     0.00000000    0.00000000    0.00000000      18
          18
Lattice="  24.8920   0.0000   0.0000   0.0000  24.8920   0.0000   0.0000   0.0000  24.8920 " ConfE="      -5939.3201" DelE="          0.8728"
Ni     0.02113955   -3.47819037   -0.02382758       1
Co     0.03341752    0.02599867   -3.53004097       2
Ni     0.03451008    3.52524483    0.01527203       3
Ni    -0.01753406    0.02509166    3.60260496       4
Ni    -3.60383025    0.00468703    0.02200150       5
Cr     3.65888881    0.01091316    0.06374340       6
Ni    -1.90024877   -1.79101204    0.08092141       7
Ni     1.90912353   -1.77297616    0.06436281       8
Ni    -1.89962026    0.05840178   -1.78429298       9
Ni     1.90844834    0.04577330   -1.77673566      10
Co     0.02558165   -1.69777024    1.80447899      11
Cr     0.04700422    1.71175604   -1.74103569      12
Ni     0.02487857    1.71786731    1.73698697      13
Co    -1.76545629   -0.03272140    1.78293211      14
Cr     1.73138130   -0.03759249    1.79115256      15
Co    -1.73877540    1.78471619   -0.02841804      16
Co     1.80598802    1.69399532    0.00426348      17
Ni     0.00167651   -1.09751815   -1.10758498      18
          18
Lattice="  24.8920   0.0000   0.0000   0.0000  24.8920   0.0000   0.0000   0.0000  24.8920 " ConfE="      -5939.8651" DelE="          0.3277"
Ni     0.00715575   -3.55057691   -0.00423470       1
Co     0.02951492    0.04991761   -3.59284905       2
Ni     0.03985468    3.55156828    0.03370961       3
Ni    -0.01337089    0.03941685    3.62078986       4
Ni    -3.54936291   -0.01017716    0.00507825       5
Cr     3.60952200   -0.00744404    0.04952991       6
Ni    -1.72930652   -1.73700541    0.03634018       7
Ni     1.74615937   -1.73088613    0.04746653       8
Ni    -1.71794014    0.02856595   -1.74187213       9
Ni     1.73175464    0.02375680   -1.71541923      10
Co     0.01910404   -1.70038403    1.84480909      11
Cr     0.05974577    1.80137781   -1.76430681      12
Ni     0.02894972    1.73436644    1.75334122      13
Co    -1.75194033   -0.02463731    1.79363146      14
Cr     1.74682390   -0.00345579    1.82286431      15
Co    -1.71659596    1.80105011   -0.02111542      16
Co     1.80461611    1.71881627    0.02316326      17
Ni     0.02047228   -1.75004142   -1.75596096      18
