          18
Lattice="  24.8920   0.0000   0.0000   0.0000  24.8920   0.0000   0.0000   0.0000  24.8920 " ConfE="      -5940.7629" DelE="          0.0000"
Co    -0.02245986    0.00476547    3.44975170       1
Cr     0.00414995    3.47438366   -0.01808891       2
Ni    -3.61422047   -0.05010891   -0.04717704       3
Co    -0.04427872   -0.07470147   -3.62016280       4
Co    -0.05476773   -3.60423752   -0.08960398       5
Cr     3.51716025   -0.03630502   -0.09064112       6
Ni    -1.83539594   -0.02228394    1.71991547       7
Ni    -1.80706581    1.72242519   -0.04557539       8
Cr     1.68286057   -0.01579786    1.69733052       9
Cr     1.67775302    1.71674379    0.00492732      10
Ni    -0.08023632   -1.84557445    1.73209396      11
Ni    -0.03920801    1.69202877   -1.85664003      12
Cr    -1.81660362   -0.08262888   -1.82299903      13
Cr    -1.79390979   -1.81807229   -0.08588330      14
Cr    -0.02856795   -1.80620965   -1.80847282      15
Cr     1.77901430   -0.11638113   -1.85378159      16
Co     1.70562125   -1.84496290   -0.05576006      17
Co     0.00000000    0.00000000    0.00000000      18
          18
Lattice="  24.8920   0.0000   0.0000   0.0000  24.8920   0.0000   0.0000   0.0000  24.8920 " ConfE="      -5939.9261" DelE="          0.8369"
Co    -0.02382390    0.01211930    3.41111720       1
Cr     0.00892749    3.42399950    0.00375965       2
Ni    -3.68725150   -0.06323616   -0.05214589       3
Co    -0.04030385   -0.05945510   -3.61377949       4
Co    -0.05486927   -3.60159233   -0.08972917       5
Cr     3.65116706   -0.09251174   -0.11746265       6
Ni    -1.96688685   -0.05137462    1.73798619       7
Ni    -1.95465220    1.73455222   -0.08325951       8
Cr     1.84488315   -0.14532643    1.65138954       9
Cr     1.85510993    1.71034301   -0.13339792      10
Ni    -0.09415316   -1.78156270    1.69477794      11
Ni    -0.04409604    1.64386564   -1.77323460      12
Cr    -1.80685036   -0.07399899   -1.77814146      13
Cr    -1.78774553   -1.76778077   -0.07062503      14
Cr    -0.04904628   -1.73814247   -1.74534310      15
Cr     1.76180884   -0.12454609   -1.77765075      16
Co     1.69487631   -1.81264592   -0.07682688      17
Co     0.03548137    0.88415531    0.88283568      18
          18
Lattice="  24.8920   0.0000   0.0000   0.0000  24.8920   0.0000   0.0000   0.0000  24.8920 " ConfE="      -5940.5567" DelE="          0.2062"
Co    -0.01610867   -0.04770239    3.48635536       1
Cr    -0.01510913    3.52351038   -0.04147401       2
Ni    -3.64689855   -0.06089081   -0.05261372       3
Co    -0.04079599   -0.06726893   -3.62610910       4
Co    -0.05294514   -3.62103779   -0.09776767       5
Cr     3.59742211   -0.05976685   -0.10229750       6
Ni    -1.83787873   -0.05466303    1.68999239       7
Ni    -1.82454212    1.69605124   -0.06675548       8
Cr     1.67920726   -0.04931218    1.55391141       9
Cr     1.68561310    1.69678599   -0.07821062      10
Ni    -0.08224728   -1.81400182    1.69832923      11
Ni    -0.04928629    1.65249314   -1.80805744      12
Cr    -1.79752996   -0.09871768   -1.80129862      13
Cr    -1.78541785   -1.80481940   -0.09841586      14
Cr    -0.04826745   -1.78081961   -1.78356578      15
Cr     1.74446346   -0.11914595   -1.76593563      16
Co     1.66900263   -1.81152531   -0.08024508      17
Co    -0.03619690    1.67478671    1.67370545      18
