          18
Lattice="  24.8920   0.0000   0.0000   0.0000  24.8920   0.0000   0.0000   0.0000  24.8920 " ConfE="      -5947.9870" DelE="          0.0000"
Co    -0.07508078    0.07098749    3.43012360       1
Co     0.01127183    3.49410845   -0.06952581       2
Co    -0.01005577    0.00180008   -3.56307429       3
Ni     0.03528598   -3.57686582   -0.05510363       4
Cr     3.58291217   -0.00483759   -0.00909656       5
Cr    -3.53869873    0.00572326   -0.05309482       6
Co     1.81206060    0.07379727    1.66936943       7
Co    -1.84260720    0.01848349    1.73147625       8
Cr     1.70333773    1.76175922   -0.02096621       9
Co    -1.72884687    1.74385082   -0.01290578      10
Ni     0.00652381   -1.81576034    1.74293424      11
Cr    -0.04017434    1.78063511   -1.82658341      12
Cr    -0.02151603   -1.77135903   -1.83551337      13
Ni     1.78684450   -1.80135859   -0.03136964      14
Ni    -1.77302213   -1.80476781   -0.02994658      15
Ni     1.77812753   -0.01253762   -1.78884551      16
Cr    -1.76673245    0.00583875   -1.79053299      17
Ni     0.00000000    0.00000000    0.00000000      18
          18
Lattice="  24.8920   0.0000   0.0000   0.0000  24.8920   0.0000   0.0000   0.0000  24.8920 " ConfE="      -5947.2821" DelE="          0.7048"
Co    -0.06703028    0.04451125    3.44009731       1
Co    -0.00578413    3.48918702   -0.06166727       2
Co    -0.01670371    0.01782092   -3.56618045       3
Ni     0.03357723   -3.55727459   -0.05032805       4
Cr     3.65046392   -0.03494717   -0.02285989       5
Cr    -3.63575482   -0.01577709   -0.09823686       6
Co     1.96748881   -0.02765203    1.71189402       7
Co    -2.02621035   -0.07469410    1.73003001       8
Cr     1.83651908    1.75394894   -0.04891546       9
Co    -1.90566958    1.74395688   -0.08884827      10
Ni    -0.00481665   -1.73069393    1.70671364      11
Cr    -0.02884810    1.67402275   -1.64005921      12
Cr    -0.03752337   -1.68222671   -1.78454449      13
Ni     1.77495593   -1.76969892   -0.02524923      14
Ni    -1.77305035   -1.76885150   -0.04077560      15
Ni     1.77027914   -0.00758210   -1.75314719      16
Cr    -1.75140749    0.02686514   -1.72774355      17
Ni    -0.02781338    1.02449021    1.07679843      18
          18
Lattice="  24.8920   0.0000   0.0000   0.0000  24.8920   0.0000   0.0000   0.0000  24.8920 " ConfE="      -5947.8684" DelE="          0.1186"
Co    -0.06083308    0.01329664    3.50425246       1
Co     0.00190881    3.55246437   -0.08167594       2
Co    -0.00950268    0.00621181   -3.59508302       3
Ni     0.03298021   -3.57724288   -0.05643890       4
Cr     3.62713432   -0.02935337   -0.02181086       5
Cr    -3.58428039   -0.00995059   -0.06536155       6
Co     1.79124099    0.02925088    1.65366442       7
Co    -1.84701141   -0.02224891    1.71540501       8
Cr     1.72180545    1.69118414   -0.02901515       9
Co    -1.72091453    1.68071619   -0.06799669      10
Ni     0.00064626   -1.77002008    1.72070190      11
Cr    -0.02746847    1.70934755   -1.74097436      12
Cr    -0.03348019   -1.71582017   -1.81164457      13
Ni     1.76150212   -1.77746222   -0.03648366      14
Ni    -1.75188113   -1.77275510   -0.04178967      15
Ni     1.75690687   -0.01726859   -1.77112470      16
Cr    -1.73920168    0.00342236   -1.76521588      17
Ni    -0.01468050    1.72931142    1.69117166      18
