          18
Lattice="  24.8920   0.0000   0.0000   0.0000  24.8920   0.0000   0.0000   0.0000  24.8920 " ConfE="      -5949.7911" DelE="          0.0000"
Cr    -3.48465386   -0.04503462   -0.01667867       1
Co     0.00474794   -0.00038588    3.50047428       2
Cr     0.07384127    3.48636292   -0.04584936       3
Cr     3.52802875    0.07420983   -0.01642379       4
Co     0.02963432   -0.00749473   -3.58824214       5
Co     0.03476778   -3.51166738    0.00938401       6
Ni    -1.74067434    1.75009626   -0.02094397       7
Co     0.00586851    1.74096551    1.78347061       8
Cr    -0.07387329   -1.69200855    1.77607667       9
Cr    -1.73281589   -1.73270721   -0.00511073      10
Ni     1.77525927   -1.75633613   -0.00285397      11
Co    -1.73680643    0.00072164   -1.83284896      12
Cr     1.79376968    0.08750788    1.75970182      13
Co     0.04245644    1.77794217   -1.82396168      14
Co     1.78711413    1.78828127   -0.03066094      15
Co     1.79349335   -0.00590382   -1.80235318      16
Co    -0.01076482   -1.78693861   -1.78250649      17
Ni     0.00000000    0.00000000    0.00000000      18
          18
Lattice="  24.8920   0.0000   0.0000   0.0000  24.8920   0.0000   0.0000   0.0000  24.8920 " ConfE="      -5949.2870" DelE="          0.5041"
Cr    -3.40165708   -0.05924085    0.00499115       1
Co     0.01109215   -0.00754681    3.44309494       2
Cr     0.10092660    3.55510893   -0.06159696       3
Cr     3.53553277    0.07437787   -0.01643212       4
Co     0.01714013   -0.00997963   -3.59122458       5
Co     0.02570930   -3.56095662   -0.01571767       6
Ni    -1.76234898    1.92913657   -0.07402286       7
Co     0.03733593    1.92296575    1.79654949       8
Cr     0.02844937   -1.90949617    1.79481024       9
Cr    -1.73853674   -1.92612367   -0.14644211      10
Ni     1.76090193   -1.76354286   -0.00768131      11
Co    -1.70497546    0.01365179   -1.76086198      12
Cr     1.72563409    0.07281839    1.69390100      13
Co     0.03335819    1.77219026   -1.79809149      14
Co     1.73987107    1.75525242   -0.01082059      15
Co     1.74335034   -0.00720953   -1.74303818      16
Co    -0.02582515   -1.77054930   -1.73583865      17
Ni    -0.74001095   -0.02399967    0.69854555      18
          18
Lattice="  24.8920   0.0000   0.0000   0.0000  24.8920   0.0000   0.0000   0.0000  24.8920 " ConfE="      -5949.7372" DelE="          0.0540"
Cr    -3.53834947   -0.03617058   -0.04660173       1
Co     0.03011889   -0.00071248    3.55997434       2
Cr     0.09277986    3.51216924   -0.05447846       3
Cr     3.53625716    0.08561674   -0.02461558       4
Co     0.02172652   -0.01229629   -3.60331463       5
Co     0.04996225   -3.54717739   -0.00465843       6
Ni    -1.70041089    1.75536962   -0.04762910       7
Co     0.05739245    1.73347028    1.74625799       8
Cr     0.01661901   -1.71993343    1.71646288       9
Cr    -1.64993174   -1.72976174   -0.08746566      10
Ni     1.74909084   -1.72042126   -0.01800113      11
Co    -1.70899988   -0.00652420   -1.76957716      12
Cr     1.72585160    0.08511883    1.71325135      13
Co     0.04612452    1.75227129   -1.80853874      14
Co     1.75721721    1.73833180   -0.03168163      15
Co     1.76828391   -0.00031484   -1.78309133      16
Co    -0.01855260   -1.75742981   -1.74179398      17
Ni    -1.69793414   -0.00373642    1.69433479      18
