          18
Lattice="  24.8920   0.0000   0.0000   0.0000  24.8920   0.0000   0.0000   0.0000  24.8920 " ConfE="      -5940.9469" DelE="          0.0000"
Co     0.00011971   -3.64288952    0.01234206       1
Co     0.00095390   -0.04922546    3.45086091       2
Ni     3.51087870   -0.08519770   -0.05445354       3
Co    -0.04915684   -0.09460570   -3.59344801       4
Co    -0.01758594    3.50973115   -0.02989946       5
Cr    -3.53542799   -0.13591798   -0.04083117       6
Cr     1.61306820   -1.86210693    0.12551010       7
Cr     1.76078816   -0.03083062    1.74793609       8
Co    -1.77432447   -0.06402844    1.72137300       9
Cr    -1.55644261   -1.88231052    0.17735127      10
Ni     1.74935498   -0.08984968   -1.79692329      11
Ni    -1.78829788    1.74197771   -0.02043469      12
Co     1.73901888    1.69056289   -0.01006934      13
Cr    -0.00471505   -1.86002634   -1.78461223      14
Cr     0.02772889    1.78550191    1.70760458      15
Co    -0.02336077    1.68806514   -1.77245374      16
Co    -1.73803448   -0.13748423   -1.76004426      17
Cr     0.00000000    0.00000000    0.00000000      18
          18
Lattice="  24.8920   0.0000   0.0000   0.0000  24.8920   0.0000   0.0000   0.0000  24.8920 " ConfE="      -5940.4379" DelE="          0.5089"
Co    -0.00426536   -3.55176888    0.01274484       1
Co    -0.01162647   -0.00553944    3.38336185       2
Ni     3.56976274   -0.07610220   -0.08149922       3
Co    -0.05973994   -0.11140128   -3.60611328       4
Co    -0.02281285    3.52964293   -0.01986909       5
Cr    -3.64976222   -0.11977815   -0.06943633       6
Cr     1.84669731   -1.92600130    0.03556132       7
Cr     2.02268690    0.05305583    1.78772804       8
Co    -1.95962664    0.01137778    1.73550222       9
Cr    -1.86051212   -1.90670490    0.08563079      10
Ni     1.70601851   -0.12173339   -1.74558274      11
Ni    -1.76327960    1.69842045    0.00217085      12
Co     1.66170432    1.58158173    0.05160043      13
Cr    -0.02377228   -1.84945296   -1.71845603      14
Cr     0.01949584    1.77384883    1.68141636      15
Co    -0.02528223    1.63667418   -1.72289486      16
Co    -1.67884672   -0.16676668   -1.67374330      17
Cr     0.02448850   -0.61267374    0.75063833      18
          18
Lattice="  24.8920   0.0000   0.0000   0.0000  24.8920   0.0000   0.0000   0.0000  24.8920 " ConfE="      -5940.7802" DelE="          0.1667"
Co    -0.01034587   -3.65828723   -0.02175763       1
Co    -0.00494623   -0.06404840    3.52063917       2
Ni     3.56485271   -0.05586003   -0.07189121       3
Co    -0.06521087   -0.10269910   -3.63384239       4
Co    -0.02428780    3.52971657   -0.03510603       5
Cr    -3.59998721   -0.09918820   -0.04424387       6
Cr     1.78810320   -1.84079002   -0.06489132       7
Cr     1.73392606   -0.03549902    1.66216270       8
Co    -1.78570121   -0.07027214    1.70078247       9
Cr    -1.84435731   -1.85795464   -0.03104682      10
Ni     1.71739304   -0.07244717   -1.78547478      11
Ni    -1.75837644    1.69686870   -0.03422015      12
Co     1.68291603    1.64065471    0.01386945      13
Cr    -0.03461792   -1.81224279   -1.68159190      14
Cr     0.01800543    1.62831049    1.64096547      15
Co    -0.02693328    1.67080143   -1.76901329      16
Co    -1.71609548   -0.12930900   -1.75572289      17
Cr    -0.04689665   -1.70426784    1.55316200      18
