          18
Lattice="  24.8920   0.0000   0.0000   0.0000  24.8920   0.0000   0.0000   0.0000  24.8920 " ConfE="      -5948.0770" DelE="          0.0000"
Ni    -0.00776876   -0.04731404   -3.47976750       1
Ni     0.00964317   -3.62464666    0.05407325       2
Co     0.03910742    3.46731090    0.06392939       3
Cr     3.55927742   -0.09406769    0.04253871       4
Co    -3.52263752   -0.04086660    0.04170593       5
Co     0.08204362   -0.06792062    3.61411395       6
Ni     1.74970047   -0.05865072   -1.74153462       7
Cr    -1.72514027   -0.05102966   -1.70955095       8
Ni    -1.72567358   -0.02068678    1.82922693       9
Co     1.75362052    1.72047095    0.02348147      10
Cr    -1.67281387    1.72969617    0.03004776      11
Ni     1.74313701   -1.84868442    0.02091761      12
Ni    -1.75381891   -1.82737274    0.04530494      13
Cr     1.79538432   -0.06003814    1.76806622      14
Cr     0.05495784    1.73255092    1.83411301      15
Co    -0.05209130   -1.83821972   -1.73856925      16
Cr     0.02932103   -1.79457497    1.83428627      17
Co     0.00000000    0.00000000    0.00000000      18
          18
Lattice="  24.8920   0.0000   0.0000   0.0000  24.8920   0.0000   0.0000   0.0000  24.8920 " ConfE="      -5947.2235" DelE="          0.8535"
Ni    -0.00473697   -0.04831355   -3.46303532       1
Ni     0.01186471   -3.65928804    0.04385418       2
Co     0.05007683    3.46641570    0.05887764       3
Cr     3.61051605   -0.14844094    0.08335559       4
Co    -3.50252930   -0.03199234    0.08105930       5
Co     0.10024041   -0.05889329    3.58401341       6
Ni     1.82931961   -0.09907598   -1.72198077       7
Cr    -1.83159296   -0.17399494   -1.73572636       8
Ni    -1.09655531    0.05287177    1.35132987       9
Co     1.87875368    1.72294942    0.05948239      10
Cr    -1.89531177    1.89104203    0.09697996      11
Ni     1.69015276   -1.82163246    0.03846054      12
Ni    -1.75533804   -1.86303050    0.05254048      13
Cr     1.70316787   -0.05555324    1.69469954      14
Cr     0.20494131    1.90914311    1.80889902      15
Co    -0.07510773   -1.75230974   -1.68572822      16
Cr     0.06625498   -1.93094955    1.87769491      17
Co    -0.13291189    1.06501507   -0.97548820      18
          18
Lattice="  24.8920   0.0000   0.0000   0.0000  24.8920   0.0000   0.0000   0.0000  24.8920 " ConfE="      -5948.0212" DelE="          0.0558"
Ni    -0.01209708   -0.06464474   -3.50119542       1
Ni     0.00460637   -3.60889268    0.07196555       2
Co     0.03983907    3.48386621    0.10601120       3
Cr     3.57785221   -0.11655589    0.05414524       4
Co    -3.49621567   -0.02947816    0.05986136       5
Co     0.03755093   -0.05675182    3.54748846       6
Ni     1.75170960   -0.08612993   -1.72062259       7
Cr    -1.78358142   -0.09454326   -1.75883314       8
Ni    -0.04837595   -0.05080469    0.09124366       9
Co     1.77871216    1.70788535    0.06669732      10
Cr    -1.75281836    1.73135975    0.11200296      11
Ni     1.73613498   -1.84492015    0.05452755      12
Ni    -1.76069048   -1.81228930    0.07281837      13
Cr     1.84656106   -0.05574407    1.80808988      14
Cr    -0.02827006    1.66791053    1.82432106      15
Co    -0.05995866   -1.82382457   -1.73484212      16
Cr    -0.02487818   -1.74655217    1.89781373      17
Co    -0.02404294    1.71688082   -1.67655870      18
