          18
Lattice="  24.8920   0.0000   0.0000   0.0000  24.8920   0.0000   0.0000   0.0000  24.8920 " ConfE="      -5929.9630" DelE="          0.0000"
Ni    -0.09529288   -0.02595726    3.44327346       1
Co     3.44202398   -0.02777622   -0.01800833       2
Cr    -0.08824069   -3.64188896   -0.08867108       3
Cr    -0.11382313   -0.07464438   -3.60674865       4
Cr    -0.08544640    3.54882969   -0.11101899       5
Cr    -3.68624260   -0.01510218   -0.08342985       6
Ni    -0.06199956   -1.79830856    1.67578005       7
Cr     1.82012359   -1.70060549    0.03590047       8
Ni     1.68890048   -0.04788769   -1.85849557       9
Co     1.66778057    1.71462775   -0.02702898      10
Cr    -0.08984582    1.73213088    1.63258559      11
Ni    -1.85671280   -1.79893614   -0.04789353      12
Ni    -0.08804139    1.75764009   -1.84518993      13
Cr    -1.91981337    0.03045632    1.66159499      14
Cr    -0.10124851   -1.81625807   -1.76717850      15
Co    -1.86884194    1.73375266   -0.09416227      16
Co    -1.81241109   -0.05086689   -1.80806901      17
Cr     0.00000000    0.00000000    0.00000000      18
          18
Lattice="  24.8920   0.0000   0.0000   0.0000  24.8920   0.0000   0.0000   0.0000  24.8920 " ConfE="      -5929.3792" DelE="          0.5837"
Ni    -0.09145529   -0.02950266    3.38016333       1
Co     3.40797554   -0.01377990   -0.01465393       2
Cr    -0.10845102   -3.69814164   -0.12400453       3
Cr    -0.10778877   -0.07511118   -3.58145650       4
Cr    -0.11543499    3.65240755   -0.15553532       5
Cr    -3.66114567   -0.01866214   -0.07817918       6
Ni    -0.09676828   -1.91016978    1.68006197       7
Cr     1.82960381   -1.87802689   -0.04696168       8
Ni     1.66868484   -0.03310139   -1.79796939       9
Co     1.70800172    1.89906584   -0.10413013      10
Cr    -0.16289353    1.84516016    1.61978059      11
Ni    -1.83791741   -1.80224946   -0.03515045      12
Ni    -0.07755939    1.75552254   -1.80439505      13
Cr    -1.88784427    0.02248768    1.62959250      14
Cr    -0.07120253   -1.77047337   -1.67835152      15
Co    -1.81240896    1.70506144   -0.06702510      16
Co    -1.75366884   -0.06451782   -1.75996488      17
Cr     0.75989970    0.01150475    0.64835078      18
          18
Lattice="  24.8920   0.0000   0.0000   0.0000  24.8920   0.0000   0.0000   0.0000  24.8920 " ConfE="      -5930.1927" DelE="         -0.2297"
Ni    -0.12337274   -0.03113869    3.49446346       1
Co     3.50598363   -0.02564270   -0.05129097       2
Cr    -0.09907481   -3.64928393   -0.10687345       3
Cr    -0.11745991   -0.07181380   -3.60232485       4
Cr    -0.08699795    3.57919572   -0.12425971       5
Cr    -3.67819256   -0.01465143   -0.08019256       6
Ni    -0.09877259   -1.77923756    1.63857798       7
Cr     1.74611867   -1.75397451   -0.06156014       8
Ni     1.64205420   -0.04847206   -1.79815043       9
Co     1.64622441    1.71434452   -0.04659460      10
Cr    -0.09644673    1.67232839    1.56892987      11
Ni    -1.85317224   -1.79385659   -0.05927543      12
Ni    -0.09627744    1.74861934   -1.83044577      13
Cr    -1.86361669    0.04013064    1.61408257      14
Cr    -0.12635518   -1.79603755   -1.77236256      15
Co    -1.83239574    1.70013965   -0.08037001      16
Co    -1.78997110   -0.06159630   -1.79093421      17
Cr     1.66688840   -0.06336317    1.63783440      18
