          18
Lattice="  24.8920   0.0000   0.0000   0.0000  24.8920   0.0000   0.0000   0.0000  24.8920 " ConfE="      -5942.9343" DelE="          0.0000"
Ni    -3.56963025   -0.03505896   -0.02636034       1
Cr     0.00997362   -0.01417504    3.40810645       2
Cr     3.54012138   -0.00410221   -0.08954383       3
Ni    -0.03472523   -0.05594799   -3.62291344       4
Cr    -0.03373082   -3.59739077   -0.09896672       5
Cr    -0.05344039    3.44144967   -0.01040927       6
Ni    -1.81015206   -1.79516259   -0.05041540       7
Ni    -1.83038770    1.68976792   -0.01847754       8
Ni    -0.04374526   -1.78636200    1.69717238       9
Cr    -0.02074011    1.68340429    1.70974221      10
Ni    -1.82504263   -0.04088407   -1.86143443      11
Cr     1.81797061   -0.01600329    1.72265322      12
Cr     1.80172631   -0.04580303   -1.88621371      13
Ni    -0.04899094   -1.79486873   -1.84263810      14
Ni    -0.03847170    1.70868864   -1.81882772      15
Ni     1.73707432   -1.79691224   -0.07847352      16
Co     1.78855957    1.74771500   -0.05509001      17
Co     0.00000000    0.00000000    0.00000000      18
          18
Lattice="  24.8920   0.0000   0.0000   0.0000  24.8920   0.0000   0.0000   0.0000  24.8920 " ConfE="      -5942.2301" DelE="          0.7042"
Ni    -3.53220837   -0.04144177    0.00221698       1
Cr    -0.01938194   -0.03438266    3.37617266       2
Cr     3.54839308   -0.00395825   -0.08200485       3
Ni    -0.05179040   -0.05282829   -3.62190245       4
Cr    -0.00466506   -3.69789111   -0.16768756       5
Cr    -0.04083939    3.50677116   -0.03729732       6
Ni    -1.81593626   -1.90521539   -0.05695327       7
Ni    -1.88252623    1.83268670   -0.08544722       8
Ni    -0.00452078   -2.01758294    1.70054282       9
Cr     0.01284254    1.88094585    1.74826726      10
Ni    -1.81987198   -0.04225482   -1.79939620      11
Cr     1.70872232   -0.00414011    1.68293613      12
Cr     1.76654426   -0.03240660   -1.85391616      13
Ni    -0.06495634   -1.77676822   -1.81294375      14
Ni    -0.05467370    1.68858680   -1.76987494      15
Ni     1.68337648   -1.75915175   -0.07165865      16
Co     1.74164555    1.72084588   -0.03951890      17
Co    -0.76712353    0.04347203    0.91537669      18
          18
Lattice="  24.8920   0.0000   0.0000   0.0000  24.8920   0.0000   0.0000   0.0000  24.8920 " ConfE="      -5942.9847" DelE="         -0.0504"
Ni    -3.60011983   -0.03509715   -0.05984278       1
Cr     0.01666805   -0.00977366    3.47862448       2
Cr     3.57231295    0.00729961   -0.10229229       3
Ni    -0.03998198   -0.05641655   -3.64704698       4
Cr    -0.02110669   -3.61881225   -0.12169920       5
Cr    -0.03577372    3.46911971   -0.03176585       6
Ni    -1.79910508   -1.79611325   -0.08269837       7
Ni    -1.80402460    1.69630550   -0.06416143       8
Ni    -0.02441829   -1.76682580    1.65990231       9
Cr    -0.02060927    1.68216708    1.69820413      10
Ni    -1.82367901   -0.04341605   -1.85741201      11
Cr     1.74310872    0.00171887    1.71188310      12
Cr     1.81442945   -0.03933030   -1.92089979      13
Ni    -0.04635621   -1.77190900   -1.84793248      14
Ni    -0.03414550    1.67599137   -1.80253680      15
Ni     1.70525100   -1.72304581   -0.09947534      16
Co     1.73689638    1.67725969   -0.04975640      17
Co    -1.77162966   -0.01862116    1.72248464      18
