          18
Lattice="  24.8920   0.0000   0.0000   0.0000  24.8920   0.0000   0.0000   0.0000  24.8920 " ConfE="      -5941.8284" DelE="          0.0000"
Co     0.05365994    3.45904063    0.03090651       1
Co     0.06619256   -0.03773935    3.43827428       2
Ni     0.01085097   -3.61404952   -0.04280611       3
Ni    -3.48340616   -0.03364505   -0.03051497       4
Co     0.01452498   -0.06488622   -3.62293453       5
Cr     3.58232532   -0.10142697   -0.02961617       6
Ni    -1.75377203   -1.82651748   -0.03131663       7
Cr    -1.69345644    1.77373173    0.02771700       8
Co    -1.67594265    0.01487676    1.69311931       9
Ni     1.73270331   -1.82210080   -0.04259828      10
Co     1.74927307    1.71287430   -0.01611696      11
Cr     1.77367750    0.01321347    1.72029084      12
Ni     0.00270662    1.72188100   -1.84677044      13
Ni     1.76551187   -0.07317915   -1.82712657      14
Cr    -0.00750780   -1.80524220    1.76519953      15
Co    -0.05134341   -1.79114444   -1.82750698      16
Cr    -1.71551728   -0.13219134   -1.86371521      17
Cr     0.00000000    0.00000000    0.00000000      18
          18
Lattice="  24.8920   0.0000   0.0000   0.0000  24.8920   0.0000   0.0000   0.0000  24.8920 " ConfE="      -5941.3748" DelE="          0.4536"
Co     0.05551205    3.40425472    0.04332007       1
Co     0.04547385   -0.02552926    3.36426513       2
Ni     0.01637287   -3.62118274   -0.03361772       3
Ni    -3.51844955   -0.03700759   -0.03505510       4
Co     0.02453875   -0.06561418   -3.64434042       5
Cr     3.63571812   -0.15496610   -0.06133181       6
Ni    -1.71046852   -1.76827248    0.00862866       7
Cr    -1.85789536    1.83702515   -0.03522634       8
Co    -1.82864028   -0.02601725    1.75951696       9
Ni     1.68642014   -1.76181079   -0.00280524      10
Co     1.87048398    1.72338702   -0.07872661      11
Cr     1.90958370   -0.00293673    1.74618202      12
Ni    -0.00552632    1.69376510   -1.80604659      13
Ni     1.74917573   -0.06941131   -1.79609888      14
Cr    -0.01131106   -1.78015509    1.77501211      15
Co    -0.06248629   -1.74001108   -1.79121662      16
Cr    -1.68070502   -0.11793504   -1.79520290      17
Cr    -0.04723846    0.67707558    0.63061002      18
          18
Lattice="  24.8920   0.0000   0.0000   0.0000  24.8920   0.0000   0.0000   0.0000  24.8920 " ConfE="      -5942.0472" DelE="         -0.2188"
Co     0.05923438    3.51416109   -0.00715686       1
Co     0.06417419   -0.05501321    3.53750029       2
Ni     0.01048785   -3.61689370   -0.04697066       3
Ni    -3.50862580   -0.04603396   -0.03636137       4
Co     0.02498395   -0.06850283   -3.66266158       5
Cr     3.59791557   -0.11599946   -0.05018450       6
Ni    -1.73186219   -1.79877223   -0.04554809       7
Cr    -1.70560546    1.72131888   -0.02272657       8
Co    -1.67783809   -0.02374048    1.69088725       9
Ni     1.70341970   -1.80570156   -0.05831111      10
Co     1.74499358    1.67716404   -0.03395052      11
Cr     1.78090018   -0.05131107    1.66229363      12
Ni    -0.00873326    1.67929867   -1.79633666      13
Ni     1.74787283   -0.08633907   -1.82153700      14
Cr    -0.00741453   -1.70890362    1.73084421      15
Co    -0.06909931   -1.76878614   -1.84150289      16
Cr    -1.69769950   -0.14449760   -1.84631142      17
Cr     0.00404327    1.62174803    1.69149352      18
