          18
Lattice="  24.8920   0.0000   0.0000   0.0000  24.8920   0.0000   0.0000   0.0000  24.8920 " ConfE="      -5948.4469" DelE="          0.0000"
Co    -3.47338360   -0.07923268   -0.00820321       1
Co     0.04483095   -0.08511740   -3.43400347       2
Co     3.60861556   -0.06786809    0.04881312       3
Ni     0.06177697   -0.08451712    3.62789383       4
Co     0.03155734   -3.54693866    0.08525708       5
Co     0.04122912    3.40787012    0.04672286       6
Cr    -1.85136916   -1.72335258   -0.05999637       7
Co    -1.74730964    1.57197484   -0.02536359       8
Ni     0.02295877   -1.78950154   -1.69541188       9
Co     0.01834080    1.59174326   -1.67968996      10
Ni    -1.74846937   -0.06329784    1.86478883      11
Cr     1.87359216   -0.08848127   -1.72097050      12
Co     1.80201051   -0.08326843    1.79965634      13
Cr     0.03558891   -1.79195637    1.80681375      14
Ni     0.03501402    1.68687636    1.84011993      15
Cr     1.89478551   -1.78971812    0.01649888      16
Co     1.85671090    1.66875786    0.02868913      17
Cr     0.00000000    0.00000000    0.00000000      18
          18
Lattice="  24.8920   0.0000   0.0000   0.0000  24.8920   0.0000   0.0000   0.0000  24.8920 " ConfE="      -5947.7589" DelE="          0.6880"
Co    -3.45243823   -0.04764305   -0.01732920       1
Co     0.02448029   -0.09889596   -3.36073517       2
Co     3.62433597   -0.06828743    0.04084233       3
Ni     0.05540590   -0.09070233    3.61400078       4
Co     0.05343350   -3.63711036    0.08576424       5
Co     0.04246005    3.45065325    0.04719745       6
Cr    -1.85158711   -1.91972950    0.01336944       7
Co    -1.79067697    1.76151601    0.05877719       8
Ni     0.07464779   -1.93288975   -1.72612067       9
Co     0.03886632    1.71730123   -1.70585967      10
Ni    -1.74696669   -0.06133676    1.80370365      11
Cr     1.81594938   -0.07376779   -1.69444656      12
Co     1.74732383   -0.10536712    1.72989375      13
Cr     0.01575043   -1.73331038    1.68612261      14
Ni     0.01837070    1.65960531    1.78182804      15
Cr     1.80405337   -1.73228937    0.00718798      16
Co     1.80229719    1.61573980   -0.00198276      17
Cr    -0.84273262   -0.06031423   -0.70930297      18
          18
Lattice="  24.8920   0.0000   0.0000   0.0000  24.8920   0.0000   0.0000   0.0000  24.8920 " ConfE="      -5948.5268" DelE="         -0.0799"
Co    -3.53937459   -0.08299650    0.04274192       1
Co     0.03540415   -0.08628150   -3.47461931       2
Co     3.64931196   -0.06125334    0.04942509       3
Ni     0.06694008   -0.08819071    3.64007958       4
Co     0.05053518   -3.58722381    0.09037412       5
Co     0.04486737    3.43449168    0.05027781       6
Cr    -1.78314608   -1.76260716    0.02550451       7
Co    -1.74891286    1.58811307    0.00791884       8
Ni     0.05318559   -1.76229056   -1.64412024       9
Co     0.01320363    1.57116469   -1.65895403      10
Ni    -1.72777069   -0.06965260    1.82886566      11
Cr     1.81213523   -0.04043831   -1.66376633      12
Co     1.78025002   -0.10362533    1.76499635      13
Cr     0.05300561   -1.76831100    1.78945008      14
Ni     0.03692349    1.66073974    1.81263416      15
Cr     1.86454151   -1.73804935    0.03776141      16
Co     1.82289170    1.61822980    0.01757575      17
Cr    -1.73649135    0.00430162   -1.62973798      18
