          18
Lattice="  24.8920   0.0000   0.0000   0.0000  24.8920   0.0000   0.0000   0.0000  24.8920 " ConfE="      -5938.6582" DelE="          0.0000"
Ni     0.04185758   -3.45200018    0.02811477       1
Ni     3.50633351    0.04483245   -0.01317827       2
Ni    -3.55442058    0.03970702    0.00809670       3
Co    -0.05308701    3.62810433    0.04255640       4
Co     0.00610080    0.01238958    3.58077772       5
Co    -0.03162544    0.03302944   -3.56509118       6
Ni     1.73475321    0.00077595    1.73710044       7
Ni     0.02246111   -1.72153086   -1.73998429       8
Ni     1.74111230    0.05579724   -1.77850355       9
Ni    -1.79287579   -1.73665707    0.02995140      10
Ni    -1.79506243    0.01083843    1.79170284      11
Ni    -1.80097990    1.81331096    0.00856438      12
Cr     0.05077325   -1.78117571    1.85375980      13
Ni    -0.01891731    1.78674680    1.78954470      14
Co    -1.81996761    0.06609457   -1.79943865      15
Co     1.76516854    1.89358690   -0.01804760      16
Co    -0.03163059    1.88528232   -1.77233446      17
Ni     0.00000000    0.00000000    0.00000000      18
          18
Lattice="  24.8920   0.0000   0.0000   0.0000  24.8920   0.0000   0.0000   0.0000  24.8920 " ConfE="      -5938.1060" DelE="          0.5521"
Ni     0.06018595   -3.39370001    0.02051563       1
Ni     3.45777210    0.03710298   -0.01104097       2
Ni    -3.54714846    0.03488536    0.01126978       3
Co    -0.05065739    3.63585962    0.05068131       4
Co    -0.00154681    0.02357266    3.62127627       5
Co    -0.04449865    0.04761565   -3.62636923       6
Ni     1.79499473    0.07169231    1.91282823       7
Ni    -0.04715640   -1.73348856   -1.91186742       8
Ni     1.74344090    0.08837761   -1.89368877       9
Ni    -1.73448298   -1.69802753    0.02787422      10
Ni    -1.75951103    0.00694118    1.78866211      11
Ni    -1.76070958    1.77780270    0.01221348      12
Cr     0.03247200   -1.80749172    2.00877222      13
Ni    -0.00880768    1.77181425    1.78705815      14
Co    -1.79116587    0.07016138   -1.79894271      15
Co     1.73527476    1.84778990   -0.02153842      16
Co    -0.02783732    1.86994505   -1.77621013      17
Ni     0.64057118   -0.70463772    0.04611122      18
          18
Lattice="  24.8920   0.0000   0.0000   0.0000  24.8920   0.0000   0.0000   0.0000  24.8920 " ConfE="      -5938.8414" DelE="         -0.1832"
Ni    -0.01035388   -3.50061130    0.03156181       1
Ni     3.52592063    0.06570611   -0.01502827       2
Ni    -3.56233951    0.03992525    0.01071675       3
Co    -0.05688736    3.64344286    0.05185660       4
Co     0.00219389    0.01726122    3.60920870       5
Co    -0.04144582    0.04411380   -3.59537809       6
Ni     1.69320298    0.04523557    1.74024755       7
Ni    -0.04147542   -1.66174183   -1.74121521       8
Ni     1.69845157    0.09042845   -1.77314388       9
Ni    -1.74679054   -1.69594763    0.03374727      10
Ni    -1.76337297    0.01414983    1.77543296      11
Ni    -1.78686669    1.79813391    0.00981098      12
Cr     0.01223429   -1.76522080    1.87228505      13
Ni    -0.02737799    1.77349522    1.76920088      14
Co    -1.81937998    0.09373610   -1.79649773      15
Co     1.74439631    1.86805575   -0.01598756      16
Co    -0.04191901    1.88276706   -1.76151710      17
Ni     1.68861547   -1.68162855   -0.00140432      18
