          18
Lattice="  24.8920   0.0000   0.0000   0.0000  24.8920   0.0000   0.0000   0.0000  24.8920 " ConfE="      -5935.2187" DelE="          0.0000"
Co    -0.04319901   -0.00340922    3.51154228       1
Cr    -0.00508758    3.30328425    0.10571633       2
Cr     0.00282587   -0.11523671   -3.54390893       3
Co    -0.00967481   -3.64421544   -0.02825507       4
Co    -3.54793463   -0.03711531   -0.04407975       5
Co     3.57883564   -0.07907291   -0.02917093       6
Co    -1.75126812   -0.02740473    1.79554531       7
Ni     1.75978718   -0.07832580    1.79221357       8
Co    -1.70301340    1.69844156    0.04699684       9
Co     1.75813913    1.69114145   -0.02474850      10
Ni    -0.00318257   -1.85134241    1.77441520      11
Cr     0.00434785    1.69076968   -1.77142988      12
Co    -0.00127058   -1.83966619   -1.79984885      13
Ni    -1.76299761   -1.82107489   -0.00315761      14
Ni     1.75667613   -1.83400930   -0.00290870      15
Co    -1.73172383   -0.04606452   -1.77568628      16
Ni     1.78182050   -0.09050412   -1.78680226      17
Co     0.00000000    0.00000000    0.00000000      18
          18
Lattice="  24.8920   0.0000   0.0000   0.0000  24.8920   0.0000   0.0000   0.0000  24.8920 " ConfE="      -5934.8096" DelE="          0.4091"
Co    -0.03728741    0.00880943    3.45177037       1
Cr    -0.01624751    3.26463839    0.14087668       2
Cr     0.00475790   -0.10042802   -3.59547285       3
Co    -0.00739957   -3.64047688   -0.01742552       4
Co    -3.60309932   -0.06340200   -0.04614196       5
Co     3.61129008   -0.09047235   -0.03779579       6
Co    -1.88155195   -0.06276945    1.81860747       7
Ni     1.89788074   -0.12302459    1.84807342       8
Co    -1.92037601    1.71820782   -0.02591613       9
Co     1.91138980    1.72846914   -0.08192165      10
Ni    -0.00058748   -1.80870316    1.76869918      11
Cr    -0.02020262    1.66374086   -1.69114949      12
Co     0.00058163   -1.81894951   -1.78599019      13
Ni    -1.74237787   -1.78774768    0.01648251      14
Ni     1.72561935   -1.77923195    0.00634763      15
Co    -1.65223154   -0.03451062   -1.70992515      16
Ni     1.74787122   -0.07014308   -1.76803970      17
Co     0.01145713    0.66429764    0.69048156      18
          18
Lattice="  24.8920   0.0000   0.0000   0.0000  24.8920   0.0000   0.0000   0.0000  24.8920 " ConfE="      -5935.5911" DelE="         -0.3724"
Co    -0.04289694   -0.04975155    3.56437123       1
Cr     0.00680322    3.43333852    0.03634625       2
Cr     0.00559073   -0.10834273   -3.62752350       3
Co    -0.00662752   -3.65787586   -0.02840308       4
Co    -3.56378971   -0.05122032   -0.05172676       5
Co     3.58504740   -0.08542602   -0.04020917       6
Co    -1.76602696   -0.07201539    1.78532762       7
Ni     1.76940354   -0.10636916    1.78150311       8
Co    -1.70748491    1.64059831    0.00489672       9
Co     1.73203697    1.65649455   -0.04520871      10
Ni    -0.00297301   -1.82498643    1.75749440      11
Cr    -0.04973392    1.64891618   -1.67089571      12
Co     0.00077319   -1.84780477   -1.81567836      13
Ni    -1.73883946   -1.81060250   -0.00803775      14
Ni     1.72427304   -1.80855060   -0.01545475      15
Co    -1.66148868   -0.06253666   -1.75742445      16
Ni     1.72558712   -0.08264463   -1.78339796      17
Co     0.00019242    1.63756988    1.73264918      18
