          18
Lattice="  24.8920   0.0000   0.0000   0.0000  24.8920   0.0000   0.0000   0.0000  24.8920 " ConfE="      -5944.0765" DelE="          0.0000"
Cr     0.05303655   -0.04696934    3.45135554       1
Ni     3.48839743   -0.01375508    0.01268024       2
Cr     0.02389711   -0.05053919   -3.58788021       3
Ni    -3.54131347   -0.01300336   -0.03152673       4
Co    -0.00302558   -3.59776497   -0.04211176       5
Ni     0.01415812    3.54994057   -0.03550544       6
Co     0.00523485   -1.77603499    1.68671044       7
Co     0.01155614    1.75159867    1.76510140       8
Cr     1.66416557   -1.75124991    0.03577722       9
Ni     1.76688652    1.74854327    0.00303018      10
Cr    -1.73355292   -0.01281638    1.74458529      11
Ni     1.76550718   -0.00746182   -1.81806968      12
Cr    -1.77064597   -0.00852031   -1.80417302      13
Cr    -1.68996713   -1.82910778   -0.06166562      14
Cr    -1.71702687    1.78274541   -0.00250526      15
Co    -0.00027327   -1.76177411   -1.79473015      16
Cr    -0.01852207    1.74466447   -1.82844535      17
Co     0.00000000    0.00000000    0.00000000      18
          18
Lattice="  24.8920   0.0000   0.0000   0.0000  24.8920   0.0000   0.0000   0.0000  24.8920 " ConfE="      -5942.6175" DelE="          1.4590"
Cr     0.03533692   -0.05357264    3.45496332       1
Ni     3.45085269    0.00269164   -0.00902165       2
Cr    -0.02440607   -0.04844130   -3.57814953       3
Ni    -3.41551709   -0.02607692   -0.05838051       4
Co    -0.02283348   -3.71536437   -0.06072379       5
Ni     0.01940452    3.63898356   -0.02809234       6
Co    -0.14166887   -1.96326095    1.67316621       7
Co    -0.06270764    1.96014019    1.79140683       8
Cr     1.57257975   -1.80569594   -0.06187138       9
Ni     1.75674789    1.87359961   -0.06259548      10
Cr    -1.64421699   -0.00338753    1.73687998      11
Ni     1.68714384    0.02074346   -1.78917177      12
Cr    -0.85565729    0.05740341   -0.94913849      13
Cr    -1.67411770   -1.96099469   -0.05961377      14
Cr    -1.73298843    1.91929590    0.06440241      15
Co     0.01152821   -1.87556693   -1.80516026      16
Cr     0.03135181    1.97540679   -1.85281784      17
Co     0.92406521   -0.01097285    1.07830889      18
          18
Lattice="  24.8920   0.0000   0.0000   0.0000  24.8920   0.0000   0.0000   0.0000  24.8920 " ConfE="      -5943.5571" DelE="          0.5194"
Cr     0.00176851   -0.04099192    3.51738954       1
Ni     3.53660690   -0.00665734   -0.02073729       2
Cr    -0.06074930   -0.02501603   -3.53889330       3
Ni    -3.49512714   -0.01858532   -0.07694143       4
Co    -0.01544569   -3.57510915   -0.05516682       5
Ni    -0.00294599    3.54774706   -0.05254847       6
Co    -0.05181405   -1.79199788    1.67850731       7
Co    -0.03061893    1.77507007    1.73680185       8
Cr     1.67564927   -1.75650911    0.00421082       9
Ni     1.75760718    1.76085191   -0.04115010      10
Cr    -1.72700101   -0.01692616    1.76415467      11
Ni     1.78881235   -0.01038263   -1.81367599      12
Cr    -0.08850155    0.00666296   -0.11268419      13
Cr    -1.75164424   -1.80953739   -0.11737409      14
Cr    -1.75684040    1.77491968   -0.05713307      15
Co    -0.04064535   -1.71471021   -1.78605020      16
Cr    -0.07023066    1.71831975   -1.84426097      17
Co     1.69327715   -0.00805993    1.72294398      18
