          18
Lattice="  24.8920   0.0000   0.0000   0.0000  24.8920   0.0000   0.0000   0.0000  24.8920 " ConfE="      -5939.7971" DelE="          0.0000"
Ni    -3.45038236   -0.02563715    0.03958503       1
Ni     0.01215657   -0.01993905   -3.49629743       2
Cr     3.60756437   -0.02228884    0.03188607       3
Cr     0.10140327   -0.01933727    3.54158468       4
Ni     0.02956252   -3.57482560    0.03557236       5
Cr     0.06505650    3.54334527    0.04434675       6
Co    -1.71359024   -1.76682409    0.02111121       7
Co    -1.67995500    1.73975579   -0.00288740       8
Co    -0.00963324   -1.72820337   -1.70565147       9
Co     0.05842913    1.76149682   -1.72209895      10
Co    -1.68595670   -0.02244502    1.83335920      11
Cr     1.84031703   -0.03226697   -1.77970034      12
Co     1.82046795    0.00131691    1.75546630      13
Cr     0.05293901   -1.80518037    1.78867326      14
Cr     0.00955944    1.77045154    1.78118380      15
Ni     1.83153795   -1.81897939    0.01909297      16
Cr     1.80576975    1.73860477    0.02676150      17
Cr     0.00000000    0.00000000    0.00000000      18
          18
Lattice="  24.8920   0.0000   0.0000   0.0000  24.8920   0.0000   0.0000   0.0000  24.8920 " ConfE="      -5939.4757" DelE="          0.3214"
Ni    -3.41699041   -0.03316498    0.06543731       1
Ni     0.01041554   -0.01831439   -3.45944821       2
Cr     3.61536441   -0.02352985    0.02013078       3
Cr     0.10746942   -0.01943228    3.57327763       4
Ni     0.02855131   -3.58943463    0.04562328       5
Cr     0.08141964    3.59042021    0.06703445       6
Co    -1.72961260   -1.85018262    0.04383550       7
Co    -1.70779132    1.83817927    0.03356422       8
Co     0.03249943   -1.85004168   -1.76711112       9
Co     0.05685562    1.85552830   -1.75374649      10
Co    -1.65712942   -0.02666752    1.80404951      11
Cr     1.81592956   -0.01381292   -1.77528245      12
Co     1.76290585    0.00935225    1.69588322      13
Cr     0.02919789   -1.72577397    1.75997199      14
Cr     0.00396737    1.68875823    1.71266430      15
Ni     1.76886638   -1.77665241   -0.00158563      16
Cr     1.75219259    1.70712685   -0.00707678      17
Cr    -0.51278552   -0.02183748   -0.54049985      18
          18
Lattice="  24.8920   0.0000   0.0000   0.0000  24.8920   0.0000   0.0000   0.0000  24.8920 " ConfE="      -5939.8586" DelE="         -0.0615"
Ni    -3.49578364   -0.02990730    0.07833837       1
Ni     0.05194579   -0.02305510   -3.55307776       2
Cr     3.61208483   -0.02243571    0.02980467       3
Cr     0.10839052   -0.01789256    3.56897924       4
Ni     0.03443163   -3.58297774    0.05992038       5
Cr     0.07259925    3.55500514    0.05546838       6
Co    -1.68800889   -1.76981961    0.05921059       7
Co    -1.64566824    1.73944631    0.03155562       8
Co     0.03768589   -1.72954886   -1.68200329       9
Co     0.08602296    1.75155586   -1.70576254      10
Co    -1.63861399   -0.03287614    1.78273203      11
Cr     1.78323748   -0.03101419   -1.74580629      12
Co     1.78734060    0.00718982    1.72291340      13
Cr     0.03965994   -1.74300002    1.79581034      14
Cr     0.01167100    1.68586299    1.72566575      15
Ni     1.81214960   -1.80159393    0.03720712      16
Cr     1.77796557    1.69909632    0.01774376      17
Cr    -1.65463507   -0.03722328   -1.64882047      18
