          18
Lattice="  24.8920   0.0000   0.0000   0.0000  24.8920   0.0000   0.0000   0.0000  24.8920 " ConfE="      -5948.6517" DelE="          0.0000"
Ni     0.06217057    3.41974037   -0.00031807       1
Ni     0.08539074   -0.08511850    3.54893083       2
Ni     0.08075014   -3.66515364    0.00136619       3
Cr    -3.31493713    0.05275854   -0.01299047       4
Cr     0.12739097   -0.04690246   -3.53074159       5
Cr     3.66270988   -0.11121879   -0.00606692       6
Ni    -1.66888952   -0.06724141    1.77554148       7
Cr     0.08144465    1.67041485   -1.73275134       8
Co    -1.66731421   -0.03137818   -1.72494576       9
Co     0.13121445    1.65522185    1.73026270      10
Ni     0.06388412   -1.85354073   -1.77081517      11
Ni     1.83905468   -1.86375176    0.00394202      12
Co     1.90685628    1.67058073   -0.01023580      13
Co     1.83300775   -0.06298065   -1.74001125      14
Cr     1.89830539   -0.10952408    1.75336547      15
Cr    -1.67659534   -1.84073212    0.02548679      16
Co     0.06300279   -1.86413195    1.75113823      17
Cr     0.00000000    0.00000000    0.00000000      18
          18
Lattice="  24.8920   0.0000   0.0000   0.0000  24.8920   0.0000   0.0000   0.0000  24.8920 " ConfE="      -5948.2191" DelE="          0.4326"
Ni     0.08420455    3.43257572    0.00434808       1
Ni     0.08444568   -0.09564720    3.58782972       2
Ni     0.07212747   -3.67323371    0.00108402       3
Cr    -3.37697896    0.01402949   -0.01184724       4
Cr     0.17193087   -0.08560971   -3.61670930       5
Cr     3.62147881   -0.10367307   -0.00420482       6
Ni    -1.68662123   -0.10948677    1.85315102       7
Cr     0.17320982    1.70741611   -1.89352691       8
Co    -1.66907470   -0.08519491   -1.84081685       9
Co     0.16018699    1.68816754    1.87204646      10
Ni     0.05596629   -1.82321163   -1.74534522      11
Ni     1.81764478   -1.84650148    0.00114933      12
Co     1.81015467    1.63621534    0.00407632      13
Co     1.77166315   -0.04318493   -1.72716411      14
Cr     1.80836490   -0.09047522    1.69143771      15
Cr    -1.66209013   -1.78533736    0.01367837      16
Co     0.04369523   -1.83191160    1.71576984      17
Cr    -0.79359380    0.95381577   -0.01533573      18
          18
Lattice="  24.8920   0.0000   0.0000   0.0000  24.8920   0.0000   0.0000   0.0000  24.8920 " ConfE="      -5948.7827" DelE="         -0.1310"
Ni     0.08672335    3.47043188    0.00510862       1
Ni     0.09573840   -0.08829867    3.56380810       2
Ni     0.08404054   -3.67164375    0.00266315       3
Cr    -3.46282967   -0.07034184    0.00617311       4
Cr     0.14532917   -0.06437155   -3.56450246       5
Cr     3.65475023   -0.11090519   -0.00851967       6
Ni    -1.64367224   -0.09964065    1.76868685       7
Cr     0.12417708    1.61961963   -1.71586897       8
Co    -1.64398381   -0.07552698   -1.72754701       9
Co     0.14604905    1.63450847    1.72865110      10
Ni     0.07468916   -1.84150385   -1.75171329      11
Ni     1.83950348   -1.84909688    0.00774837      12
Co     1.82921207    1.62885849   -0.01134779      13
Co     1.80782722   -0.05837456   -1.73802462      14
Cr     1.89992877   -0.10285258    1.73619094      15
Cr    -1.63958548   -1.76526844    0.02171518      16
Co     0.07005495   -1.84897940    1.72922803      17
Cr    -1.62647178    1.54159337   -0.01373212      18
