          18
Lattice="  24.8920   0.0000   0.0000   0.0000  24.8920   0.0000   0.0000   0.0000  24.8920 " ConfE="      -5948.9382" DelE="          0.0000"
Ni     0.01985031    0.01369975    3.48855346       1
Cr     3.47853890   -0.13344016    0.09594440       2
Cr     0.03224491    3.56465125   -0.03935428       3
Cr    -0.00933176    0.06755864   -3.57854880       4
Cr    -0.01888057   -3.40894186    0.04138157       5
Co    -3.55387415    0.03734345   -0.00760122       6
Ni     1.76537083    1.71155857    0.02947217       7
Ni     1.77369326    0.02695097   -1.83211927       8
Co     1.79146923   -1.71906539    0.03851267       9
Cr    -0.03786553    1.80744611    1.76848404      10
Co    -0.03203909   -1.80012800    1.69448206      11
Ni    -1.77647722   -0.00465396    1.74983948      12
Ni     0.00087607   -1.73075825   -1.80606551      13
Co     0.01245504    1.81893935   -1.78042090      14
Cr    -1.77005125    1.81003416   -0.04563683      15
Cr    -1.83024682   -1.75140340   -0.06010940      16
Co    -1.77569915    0.06280716   -1.78695090      17
Ni     0.00000000    0.00000000    0.00000000      18
          18
Lattice="  24.8920   0.0000   0.0000   0.0000  24.8920   0.0000   0.0000   0.0000  24.8920 " ConfE="      -5948.3081" DelE="          0.6301"
Ni     0.00349130    0.04978895    3.52737042       1
Cr     3.43475431   -0.10886362    0.12137201       2
Cr     0.01876197    3.63240970   -0.06708406       3
Cr     0.00204725    0.06097343   -3.58069976       4
Cr    -0.03354731   -3.52330661   -0.01467076       5
Co    -3.56190042    0.03940505    0.00730051       6
Ni     1.77912282    1.83842567   -0.03501715       7
Ni     1.76604636    0.02396966   -1.79566854       8
Co     1.77338491   -1.88268233   -0.04691361       9
Cr    -0.05948554    1.98198314    1.79007657      10
Co    -0.14272422   -2.00085536    1.66672954      11
Ni    -1.65880565    0.00587198    1.68370331      12
Ni     0.00442540   -1.71420861   -1.76947828      13
Co     0.00616104    1.78883225   -1.72979765      14
Cr    -1.68211956    1.75351296   -0.06282869      15
Cr    -1.75291677   -1.72061774   -0.05275233      16
Co    -1.73376684    0.05739433   -1.70088662      17
Ni     0.97623713   -0.01727894    1.18813181      18
          18
Lattice="  24.8920   0.0000   0.0000   0.0000  24.8920   0.0000   0.0000   0.0000  24.8920 " ConfE="      -5948.7765" DelE="          0.1617"
Ni    -0.01215544    0.01836201    3.55224236       1
Cr     3.54387417   -0.12035254    0.02819665       2
Cr     0.03621687    3.59586105   -0.04212979       3
Cr    -0.00459785    0.06274440   -3.60250819       4
Cr    -0.02702286   -3.43655743    0.02501791       5
Co    -3.58384378    0.04115290   -0.00177218       6
Ni     1.73191436    1.70460910   -0.00782793       7
Ni     1.76211180    0.02209990   -1.81348874       8
Co     1.73537957   -1.75480858   -0.01765475       9
Cr    -0.04120850    1.79875967    1.73372679      10
Co    -0.05317914   -1.78610156    1.64683397      11
Ni    -1.71967672    0.00472397    1.70264128      12
Ni    -0.00541964   -1.70075177   -1.78697855      13
Co    -0.00039099    1.79228336   -1.75431597      14
Cr    -1.71692021    1.74573773   -0.07566448      15
Cr    -1.77808165   -1.69678983   -0.06936970      16
Co    -1.74947921    0.06507897   -1.72200849      17
Ni     1.72997936   -0.02372714    1.75080250      18
