          18
Lattice="  24.8920   0.0000   0.0000   0.0000  24.8920   0.0000   0.0000   0.0000  24.8920 " ConfE="      -5922.7295" DelE="          0.0000"
Ni     0.12664659    0.00185486    3.50854710       1
Ni     0.16549580    0.00749544   -3.58330413       2
Cr    -3.21134365   -0.04173576    0.01990624       3
Co     0.14715450   -3.54968586   -0.01110160       4
Cr     3.71771781    0.06417903   -0.04542900       5
Co     0.11738985    3.53056984    0.00147018       6
Ni     0.09451873   -1.74876702    1.76627259       7
Ni     1.91246058    0.01561378    1.72132384       8
Co     0.12327350    1.75950795    1.72127689       9
Ni     1.87748412   -1.74663941   -0.02398805      10
Cr    -1.54261999   -1.89521426   -0.11646582      11
Cr    -1.57485528    1.84104952    0.00155417      12
Ni    -1.61483970   -0.00368368   -1.84311203      13
Cr     1.88590503    1.80991902   -0.12374875      14
Co     0.14058066   -1.76809454   -1.80578427      15
Co     1.93011918    0.02931435   -1.77283877      16
Co     0.12471944    1.80226679   -1.77809098      17
Cr     0.00000000    0.00000000    0.00000000      18
          18
Lattice="  24.8920   0.0000   0.0000   0.0000  24.8920   0.0000   0.0000   0.0000  24.8920 " ConfE="      -5922.1075" DelE="          0.6220"
Ni     0.14350244    0.00664393    3.48303546       1
Ni     0.15430146    0.00163767   -3.56980903       2
Cr    -3.35531584   -0.02420423   -0.02035939       3
Co     0.17391062   -3.62095614   -0.01366991       4
Cr     3.66135262    0.09026448   -0.05084722       5
Co     0.14437338    3.58802708   -0.00096131       6
Ni     0.19554027   -1.89004617    1.79312682       7
Ni     1.85437390    0.01612798    1.69094344       8
Co     0.17643708    1.87061396    1.77373680       9
Ni     1.85205495   -1.74755741   -0.02662840      10
Cr    -1.48604238   -2.00960668   -0.14585034      11
Cr    -1.54063867    1.98420337   -0.06552286      12
Ni    -1.56511179   -0.01060900   -1.70794768      13
Cr     1.76165497    1.74742277   -0.12765844      14
Co     0.13282067   -1.77011513   -1.76507611      15
Co     1.91737381    0.03177622   -1.74940254      16
Co     0.12316927    1.78634657   -1.74189297      17
Cr    -0.76005208   -0.00119499    0.85745590      18
          18
Lattice="  24.8920   0.0000   0.0000   0.0000  24.8920   0.0000   0.0000   0.0000  24.8920 " ConfE="      -5922.4657" DelE="          0.2639"
Ni     0.15592386    0.00289541    3.53272214       1
Ni     0.16424483    0.00195821   -3.57646399       2
Cr    -3.38507265   -0.04169743   -0.03004595       3
Co     0.16188959   -3.58582349   -0.01173643       4
Cr     3.69685903    0.07865854   -0.05706794       5
Co     0.14443729    3.57910723   -0.00003983       6
Ni     0.14681501   -1.76252658    1.74930252       7
Ni     1.88942413    0.02856604    1.69047106       8
Co     0.16010093    1.77050702    1.69920427       9
Ni     1.86522499   -1.73172674   -0.03677112      10
Cr    -1.47261938   -1.88744321   -0.12787042      11
Cr    -1.47643628    1.84300928   -0.04025348      12
Ni    -1.56414409   -0.01130489   -1.73755168      13
Cr     1.87054098    1.79736935   -0.15704922      14
Co     0.14240107   -1.77884535   -1.79195777      15
Co     1.94034691    0.03372916   -1.76516136      16
Co     0.14905023    1.78479826   -1.73815370      17
Cr    -1.52566275    0.02022982    1.55290275      18
