          18
Lattice="  24.8920   0.0000   0.0000   0.0000  24.8920   0.0000   0.0000   0.0000  24.8920 " ConfE="      -5936.6234" DelE="          0.0000"
Co    -0.06248339    0.03215088    3.53823197       1
Co     3.48158964    0.02052635   -0.02371378       2
Ni    -0.02555852    0.01382554   -3.60625633       3
Ni    -3.59296597    0.05779852   -0.03251900       4
Co    -0.03872072    3.58984408   -0.07516420       5
Co    -0.04807919   -3.54883886   -0.05747408       6
Ni     0.00970700    1.74230196    1.76104441       7
Cr    -0.00002109   -1.70684710    1.67623753       8
Co     1.75794139    1.77817381   -0.04056696       9
Co     1.74928222   -1.72876974    0.01675374      10
Ni    -1.83255241    0.04182080    1.75772060      11
Cr     1.70547867   -0.03885413   -1.76139472      12
Ni    -1.80354011    0.01771853   -1.81198008      13
Ni    -1.79128080    1.80253231   -0.03716205      14
Co    -1.81454542   -1.75314515   -0.03834658      15
Co    -0.00955272    1.79587567   -1.81280846      16
Co     0.01123195   -1.77529689   -1.78246749      17
Co     0.00000000    0.00000000    0.00000000      18
          18
Lattice="  24.8920   0.0000   0.0000   0.0000  24.8920   0.0000   0.0000   0.0000  24.8920 " ConfE="      -5936.0100" DelE="          0.6134"
Co    -0.05264355    0.03484899    3.51815769       1
Co     3.41607458    0.01979930   -0.02313806       2
Ni    -0.01978725    0.01938562   -3.62068976       3
Ni    -3.59243253    0.06153065   -0.02334523       4
Co    -0.05591619    3.63417677   -0.08139355       5
Co    -0.05252898   -3.58867267   -0.06575383       6
Ni    -0.03150363    1.84718782    1.79712176       7
Cr    -0.02653361   -1.81871956    1.69816231       8
Co     1.79462277    1.94529257   -0.07527831       9
Co     1.86361849   -1.97444224   -0.06909561      10
Ni    -1.77459954    0.03735464    1.72727494      11
Cr     1.66962917   -0.01963184   -1.71628766      12
Ni    -1.76606166    0.02267841   -1.77835231      13
Ni    -1.76384544    1.79500349   -0.03111709      14
Co    -1.77813229   -1.74013478   -0.02389565      15
Co     0.00943042    1.77470170   -1.78013652      16
Co     0.04698385   -1.70137820   -1.70469579      17
Co     0.79903406   -0.03851890    0.63662599      18
          18
Lattice="  24.8920   0.0000   0.0000   0.0000  24.8920   0.0000   0.0000   0.0000  24.8920 " ConfE="      -5936.6594" DelE="         -0.0361"
Co    -0.07137850    0.03529316    3.55749762       1
Co     3.51606996    0.01248743   -0.05197820       2
Ni    -0.02262938    0.01759700   -3.62145568       3
Ni    -3.60277475    0.05864630   -0.03475497       4
Co    -0.04799125    3.60777578   -0.08758114       5
Co    -0.04748553   -3.56365332   -0.06587566       6
Ni    -0.03549185    1.76048504    1.72105671       7
Cr     0.00452733   -1.68771784    1.65106461       8
Co     1.71442576    1.74751904   -0.07555832       9
Co     1.72083124   -1.73447430   -0.02242136      10
Ni    -1.78134615    0.03616142    1.71697243      11
Cr     1.61545821   -0.01536503   -1.64549415      12
Ni    -1.77969884    0.01877672   -1.79564993      13
Ni    -1.78056315    1.78614866   -0.05149087      14
Co    -1.77245736   -1.72873176   -0.03269810      15
Co    -0.01072172    1.77197491   -1.79902581      16
Co     0.01581933   -1.72873813   -1.75775768      17
Co     1.67167260    0.01338788    1.69332496      18
