          18
Lattice="  24.8920   0.0000   0.0000   0.0000  24.8920   0.0000   0.0000   0.0000  24.8920 " ConfE="      -5940.1928" DelE="          0.0000"
Ni    -0.02363317   -0.00309249    3.53510531       1
Ni    -3.48203966   -0.00845918    0.01820116       2
Ni     0.03465957    0.01493140   -3.58697868       3
Ni     0.01517802   -3.57725141   -0.00188184       4
Cr     0.03906933    3.60954674    0.02055683       5
Cr     3.54696969   -0.00784726   -0.03221900       6
Ni    -0.04030728    1.74942729    1.77088464       7
Co    -1.74469519    1.78996099   -0.03343212       8
Co     0.02109662   -1.76844947    1.74806623       9
Co    -1.73022696   -1.79583878   -0.00158735      10
Cr     1.76480829    0.03825317    1.73863558      11
Cr     1.76476762    1.77032312   -0.01199897      12
Cr    -1.70198645   -0.01933163   -1.74612053      13
Co     0.02751641    1.80632070   -1.77427641      14
Co     1.79187208    0.02979932   -1.78881780      15
Cr     1.73308942   -1.75206787    0.00812865      16
Co     0.03285342   -1.78191916   -1.79566551      17
Co     0.00000000    0.00000000    0.00000000      18
          18
Lattice="  24.8920   0.0000   0.0000   0.0000  24.8920   0.0000   0.0000   0.0000  24.8920 " ConfE="      -5939.2233" DelE="          0.9695"
Ni    -0.01849578   -0.00228699    3.53612913       1
Ni    -3.50301849   -0.00352067   -0.00940412       2
Ni     0.02603451    0.01280638   -3.57154399       3
Ni     0.03740096   -3.63216127   -0.00337712       4
Cr     0.09866365    3.68947839    0.01715596       5
Cr     3.56791466   -0.02478942   -0.01774789       6
Ni     0.01515535    1.84380247    1.75864783       7
Co    -1.73503922    1.89490215   -0.07678296       8
Co     0.08541958   -1.87853162    1.74401364       9
Co    -1.74422554   -1.94370511   -0.07502518      10
Cr     1.63794289    0.02158720    1.69205488      11
Cr     1.69871274    1.66583045   -0.03199359      12
Cr    -1.55586677   -0.06122064   -1.52788726      13
Co     0.03189638    1.78654201   -1.73049794      14
Co     1.76791846    0.01872098   -1.75571533      15
Cr     1.66260122   -1.68063411   -0.00168482      16
Co     0.04619746   -1.77717094   -1.75834759      17
Co    -1.28943444   -0.06204967    1.21414557      18
          18
Lattice="  24.8920   0.0000   0.0000   0.0000  24.8920   0.0000   0.0000   0.0000  24.8920 " ConfE="      -5939.4161" DelE="          0.7767"
Ni     0.00148139   -0.00123531    3.56624226       1
Ni    -3.54756370   -0.00671333   -0.01186156       2
Ni     0.03352264    0.01903621   -3.58795453       3
Ni     0.02526316   -3.58574200   -0.00247299       4
Cr     0.06033801    3.64889813    0.01974738       5
Cr     3.59786578   -0.01282228   -0.03197304       6
Ni     0.00982807    1.75813596    1.73309249       7
Co    -1.72046945    1.77782154   -0.05647353       8
Co     0.06070288   -1.75836227    1.71872134       9
Co    -1.71310220   -1.78440930   -0.02974751      10
Cr     1.69664566    0.01496867    1.68064891      11
Cr     1.75664152    1.71232679   -0.04260456      12
Cr    -1.63566590   -0.02701525   -1.64226611      13
Co     0.03369217    1.79019792   -1.74486733      14
Co     1.76927318    0.03167988   -1.74689909      15
Cr     1.73739027   -1.70958716   -0.02447182      16
Co     0.04133763   -1.75521034   -1.76622291      17
Co    -1.68196939   -0.01199329    1.66516830      18
