          19
Lattice="  24.8920   0.0000   0.0000   0.0000  24.8920   0.0000   0.0000   0.0000  24.8920 " ConfE="      -5937.6304" DelE="          0.0000"
Ni    -2.42043924   -2.48652467   -0.06145501       1
Ni     0.21955676    0.16930141    3.53528949       2
Cr     0.06635646   -3.22524625   -0.07619754       3
Co     0.18649148    3.72618170   -0.03116240       4
Cr     0.21790786    0.16796637   -3.66908772       5
Cr    -3.11936297    0.08370097   -0.07914234       6
Cr     3.77520771    0.16685062   -0.02404593       7
Ni     0.19800872   -1.62079811    1.80804419       8
Ni     1.97397357    0.14099455    1.75019241       9
Co    -1.62092172    0.15067073    1.74176257      10
Co     0.16969508   -1.64046530   -1.87473583      11
Co    -1.54403796    0.10748337   -1.85121387      12
Ni     1.93073879    1.88529038   -0.01778534      13
Co     0.18206467    1.92194127    1.72544040      14
Cr     1.94233126   -1.59226675   -0.08490089      15
Cr     1.87241470    0.16426866   -1.83161996      16
Co     0.19854518    1.93103834   -1.80552994      17
Co    -1.57320625    1.94527465   -0.05855631      18
Cr     0.00000000    0.00000000    0.00000000      19
          19
Lattice="  24.8920   0.0000   0.0000   0.0000  24.8920   0.0000   0.0000   0.0000  24.8920 " ConfE="      -5936.8867" DelE="          0.7437"
Ni    -2.71739091   -2.88748289   -0.08437546       1
Ni     0.23263504    0.17885202    3.58223142       2
Cr     0.03754888   -3.27795670   -0.07373340       3
Co     0.17455325    3.70968431   -0.02663926       4
Cr     0.25503402    0.21667601   -3.73806577       5
Cr    -3.20671536    0.09865369   -0.11429233       6
Cr     3.73077469    0.16244020   -0.02685563       7
Ni     0.22879646   -1.62242585    1.87909150       8
Ni     1.94926661    0.14788588    1.75091593       9
Co    -1.61016100    0.17346009    1.82351901      10
Co     0.20619162   -1.64923533   -1.99855616      11
Co    -1.53868076    0.14796261   -2.00470528      12
Ni     1.91546048    1.87987398   -0.01252328      13
Co     0.16842705    1.89996731    1.72153939      14
Cr     1.88640365   -1.57699457   -0.07368134      15
Cr     1.77131766    0.15445836   -1.77325190      16
Co     0.19850284    1.91364311   -1.80312324      17
Co    -1.54649715    1.81093294   -0.07382125      18
Cr    -0.73075393   -0.74065282   -0.07025470      19
          19
Lattice="  24.8920   0.0000   0.0000   0.0000  24.8920   0.0000   0.0000   0.0000  24.8920 " ConfE="      -5937.8863" DelE="         -0.2559"
Ni    -3.30500497   -3.32091849   -0.06169552       1
Ni     0.22053173    0.16845376    3.51742490       2
Cr     0.08459644   -3.24505382   -0.10785779       3
Co     0.19388562    3.73815941   -0.03174680       4
Cr     0.21913391    0.17053991   -3.65142718       5
Cr    -3.14712780    0.11611939   -0.07770889       6
Cr     3.78342704    0.17890104   -0.02866007       7
Ni     0.20155319   -1.60868263    1.76132523       8
Ni     1.98596943    0.15115008    1.74546918       9
Co    -1.60955337    0.16631574    1.71932807      10
Co     0.17240673   -1.63505394   -1.83984390      11
Co    -1.52949773    0.11490434   -1.81756395      12
Ni     1.94771782    1.90897729   -0.01781527      13
Co     0.19151075    1.93619290    1.72399669      14
Cr     1.96539131   -1.57959159   -0.09082733      15
Cr     1.89250105    0.18093711   -1.83022433      16
Co     0.20592166    1.94859206   -1.80696415      17
Co    -1.56726925    1.97272341   -0.05897651      18
Cr     0.03594769    0.05427463   -0.00484731      19
