          18
Lattice="  24.8920   0.0000   0.0000   0.0000  24.8920   0.0000   0.0000   0.0000  24.8920 " ConfE="      -5929.5403" DelE="          0.0000"
Cr     0.13820933   -3.41065128   -0.01149239       1
Cr     0.01114326   -0.07996965   -3.46263199       2
Co     0.00745905    3.56219115    0.07211176       3
Ni    -0.03848973    0.01271664    3.59074985       4
Co    -3.53433301    0.00361821    0.00951951       5
Cr     3.49867905   -0.03477915    0.05947830       6
Cr    -1.67795795   -1.77072155   -0.03232353       7
Co     1.77396464   -1.75292454    0.03761318       8
Ni    -1.75742330    0.03195964   -1.74168705       9
Ni     1.75959565    0.00045393   -1.73471044      10
Co    -0.02732414   -1.76807479    1.81277859      11
Co     0.03204033    1.83945468   -1.69619160      12
Cr    -0.02802554    1.78890175    1.77410003      13
Cr    -1.79844368   -0.00069530    1.73061698      14
Co     1.74863273    0.02039209    1.80827082      15
Cr    -1.77667034    1.86105153   -0.01985591      16
Cr     1.77202324    1.81040656    0.05818438      17
Ni     0.00000000    0.00000000    0.00000000      18
          18
Lattice="  24.8920   0.0000   0.0000   0.0000  24.8920   0.0000   0.0000   0.0000  24.8920 " ConfE="      -5928.9744" DelE="          0.5659"
Cr     0.13174150   -3.37827631   -0.00602319       1
Cr     0.00998116   -0.09821565   -3.39690500       2
Co     0.00464436    3.57400937    0.06102573       3
Ni    -0.04187849   -0.00830137    3.59263491       4
Co    -3.60510401    0.02302907    0.00985217       5
Cr     3.55064828   -0.03409322    0.10904535       6
Cr    -1.95014460   -1.78189456    0.05400505       7
Co     1.97429270   -1.76930125    0.08419892       8
Ni    -1.92158295    0.08729081   -1.76782870       9
Ni     1.90326672    0.04527268   -1.73914002      10
Co    -0.02602409   -1.75633988    1.73505347      11
Co     0.01890636    1.75342384   -1.64442773      12
Cr    -0.03203643    1.71088574    1.70557607      13
Cr    -1.74016019   -0.01969455    1.67928414      14
Co     1.70039335    0.00818887    1.75160385      15
Cr    -1.74207936    1.78127058   -0.01414755      16
Cr     1.74367673    1.76894030    0.05285342      17
Ni    -0.03202596   -0.80999146   -0.72377737      18
          18
Lattice="  24.8920   0.0000   0.0000   0.0000  24.8920   0.0000   0.0000   0.0000  24.8920 " ConfE="      -5929.6169" DelE="         -0.0766"
Cr     0.11073798   -3.49736146    0.08066046       1
Cr     0.00165983   -0.03607443   -3.54347212       2
Co    -0.00390785    3.59218446    0.06897681       3
Ni    -0.03668452    0.00798614    3.62447665       4
Co    -3.56675525    0.01115166    0.00973541       5
Cr     3.50876341   -0.03470655    0.07197048       6
Cr    -1.67710384   -1.67203508    0.07823049       7
Co     1.76665007   -1.72159165    0.06082328       8
Ni    -1.74718516    0.03022159   -1.72156162       9
Ni     1.75276275    0.01457561   -1.71550088      10
Co    -0.04524321   -1.72736013    1.75974256      11
Co     0.02097920    1.78244323   -1.64990369      12
Cr    -0.01837087    1.75516584    1.76456869      13
Cr    -1.75755759    0.01898029    1.73806791      14
Co     1.68510153    0.03821060    1.76253810      15
Cr    -1.69287447    1.75612956    0.00259715      16
Cr     1.68857972    1.77536050    0.04969778      17
Ni     0.00907589   -1.74764715   -1.71016675      18
