          18
Lattice="  24.8920   0.0000   0.0000   0.0000  24.8920   0.0000   0.0000   0.0000  24.8920 " ConfE="      -5938.3178" DelE="          0.0000"
Ni     3.48548922    0.01581959   -0.01709260       1
Ni     0.00722743    0.02480767    3.52714037       2
Ni    -0.00479362   -3.53188727   -0.02038171       3
Ni    -3.54831632    0.01055209   -0.03101088       4
Co     0.00005043    3.58575747   -0.01247975       5
Co    -0.05758086    0.05314443   -3.63412641       6
Ni     1.74917420    1.74656535    0.00679083       7
Ni     0.02856838   -1.72664899    1.74455659       8
Ni     1.73768562    0.02546712   -1.83728358       9
Co    -0.04978893    1.79677181    1.71952360      10
Ni    -0.02734262    1.79505701   -1.80870422      11
Ni    -1.81434191   -0.00338823    1.74160784      12
Cr     1.76173552   -1.73525656    0.08977168      13
Ni    -1.77094893    0.01476632   -1.80971152      14
Ni    -0.00114544   -1.74804837   -1.78332123      15
Cr    -1.68192070    1.81515326    0.04952804      16
Co    -1.77954921   -1.80612551   -0.02298917      17
Co     0.00000000    0.00000000    0.00000000      18
          18
Lattice="  24.8920   0.0000   0.0000   0.0000  24.8920   0.0000   0.0000   0.0000  24.8920 " ConfE="      -5934.8485" DelE="          3.4693"
Ni     3.52358834   -0.00294736   -0.02664392       1
Ni    -0.02938349    0.03434323    3.58679511       2
Ni     0.00744256   -3.52743616    0.00702614       3
Ni    -3.59187985   -0.02149905   -0.04744001       4
Co    -0.02766975    3.57327496   -0.00508623       5
Co    -0.04023593    0.01984553   -3.67894219       6
Ni     1.68250025    1.62786623    0.03511669       7
Ni     0.51214353   -0.58433120    1.26597958       8
Ni     1.72296718   -0.01797609   -1.80085728       9
Co    -0.00445384    1.83448337    1.80508613      10
Ni     0.04606083    1.77333334   -1.91699724      11
Ni    -1.86960694    0.03564488    1.76213150      12
Cr     1.87923982   -1.89227831    0.04372460      13
Ni    -1.77875914   -0.07182267   -1.91978513      14
Ni     0.00637840   -1.73799982   -1.74304880      15
Cr    -2.37147565    2.69917057    1.35468815      16
Co    -1.72450307   -1.78451254    0.03444951      17
Co    -1.46396122    1.46145038   -0.17281371      18
          18
Lattice="  24.8920   0.0000   0.0000   0.0000  24.8920   0.0000   0.0000   0.0000  24.8920 " ConfE="      -5935.0035" DelE="          3.3143"
Ni     3.52575966   -0.00557746   -0.02277875       1
Ni    -0.00633238    0.00866124    3.59794921       2
Ni     0.00954855   -3.52304294    0.00913923       3
Ni    -3.59996159    0.00181776   -0.03458049       4
Co     0.06427139    3.62786191   -0.06243295       5
Co    -0.04954891    0.03571325   -3.63707216       6
Ni     1.67758186    1.62140640    0.05866872       7
Ni     0.50856902   -0.58045381    1.25914288       8
Ni     1.73057590   -0.01739434   -1.79245862       9
Co    -0.06062719    1.82900182    1.78529970      10
Ni     0.00739722    1.76830562   -1.81726393      11
Ni    -1.86045048    0.06885537    1.74547146      12
Cr     1.88471000   -1.89715195    0.05019586      13
Ni    -1.75058640   -0.00332303   -1.78310963      14
Ni     0.01065740   -1.73920571   -1.73740809      15
Cr    -2.55029567    2.65170768    1.78199155      16
Co    -1.71875776   -1.77271399    0.04992756      17
Co    -1.69268489    1.83033382   -0.09469425      18
