          18
Lattice="  24.8920   0.0000   0.0000   0.0000  24.8920   0.0000   0.0000   0.0000  24.8920 " ConfE="      -5948.9382" DelE="          0.0000"
Ni    -0.02996647    0.06539307    3.49024853       1
Ni     3.52445418    0.03103711   -0.01992738       2
Co     0.02609841   -3.43062396    0.00904050       3
Cr    -3.53542208    0.09847559   -0.07510900       4
Cr    -0.00998437    0.15124261   -3.59819455       5
Co     0.00931017    3.62117128   -0.04890726       6
Ni    -1.76537083   -1.71155857   -0.02947217       7
Ni     1.74320647    0.01259237    1.72931135       8
Cr    -1.80323636    0.09588753    1.73901187       9
Ni     0.00832243   -1.68460761   -1.86159144      10
Ni     1.79217267    0.03968986   -1.78164203      11
Cr     1.71316808   -1.84499873    0.06647223      12
Co    -0.04984603    1.85073018    1.71473124      13
Co    -1.75291578    0.10738078   -1.80989308      14
Cr    -1.73312592    1.85309268   -0.06882645      15
Cr     0.04179980    1.84110379   -1.80547655      16
Cr     1.68952615    1.88098103   -0.01815798      17
Ni     0.00000000    0.00000000    0.00000000      18
          18
Lattice="  24.8920   0.0000   0.0000   0.0000  24.8920   0.0000   0.0000   0.0000  24.8920 " ConfE="      -5947.2580" DelE="          1.6802"
Ni    -0.01316005    0.05507078    3.43562177       1
Ni     3.62591755    0.05799681   -0.04502875       2
Co    -0.01291960   -3.42674153   -0.00674996       3
Cr    -3.74746218    0.10720973   -0.06601484       4
Cr    -0.01556790    0.20437622   -3.53278744       5
Co     0.01057280    3.54357219   -0.07179414       6
Ni    -1.95888807   -1.69219224   -0.11510811       7
Ni     1.88778796    0.11158355    1.72235961       8
Cr    -1.89073568    0.16280276    1.66999824       9
Ni     0.00407547   -1.61808014   -1.75593403      10
Ni     1.87301935    0.03061850   -1.78488231      11
Cr     1.93376582   -1.84410897   -0.03354727      12
Co    -0.04692154    1.77351014    1.65152765      13
Co    -1.84439251    0.09936933   -1.78993658      14
Cr    -1.95624963    1.88891161   -0.03262956      15
Cr    -0.00844686    1.02960979   -0.82505275      16
Cr     1.88044430    1.90629722   -0.00890871      17
Ni     0.00154929   -0.97738048    0.91095035      18
          18
Lattice="  24.8920   0.0000   0.0000   0.0000  24.8920   0.0000   0.0000   0.0000  24.8920 " ConfE="      -5948.2654" DelE="          0.6728"
Ni    -0.02352872    0.07834928    3.52634999       1
Ni     3.50224654    0.07731708   -0.04777188       2
Co     0.01224088   -3.48510344   -0.04415239       3
Cr    -3.50832210    0.13295668   -0.08135501       4
Cr    -0.02084383    0.19489547   -3.58873926       5
Co     0.01190204    3.58071469   -0.06984182       6
Ni    -1.75881525   -1.69620078   -0.06373081       7
Ni     1.74869623    0.07364268    1.72180543       8
Cr    -1.80225890    0.11858982    1.73088930       9
Ni     0.01769103   -1.69874510   -1.84964158      10
Ni     1.74495368    0.10622468   -1.81133794      11
Cr     1.76187667   -1.78428279   -0.02136691      12
Co    -0.05192861    1.83077836    1.75938752      13
Co    -1.70181789    0.14077042   -1.80487536      14
Cr    -1.60860837    1.87204513   -0.16736900      15
Cr     0.00359268    0.11380941   -0.06471335      16
Cr     1.59736901    1.90621000   -0.09936213      17
Ni    -0.00803666   -1.71312565    1.73054627      18
