          18
Lattice="  24.8920   0.0000   0.0000   0.0000  24.8920   0.0000   0.0000   0.0000  24.8920 " ConfE="      -5934.3630" DelE="          0.0000"
Cr     3.48109441   -0.00859516    0.11137945       1
Ni     0.00233080    3.55983631   -0.02471996       2
Cr     0.06141889    0.03727036    3.43204578       3
Co    -0.01889692   -3.56622633    0.00967327       4
Co     0.03600278   -0.03010924   -3.58876883       5
Cr    -3.55505976    0.03576273   -0.03822752       6
Ni     1.74235975    1.75949242    0.00149973       7
Ni     1.76248054   -1.76789387    0.02744197       8
Co    -0.00945715    1.76088461    1.76886019       9
Ni     0.00572071    1.76948259   -1.80281208      10
Co     0.01136588   -1.76508321    1.78229616      11
Ni    -1.76739738   -0.01091825   -1.79559703      12
Co     1.81558408   -0.05251889   -1.80929159      13
Co    -1.81943423    1.73610994    0.01085341      14
Cr    -1.81306473    0.00086264    1.77037950      15
Cr     0.03493205   -1.77416640   -1.76570459      16
Cr    -1.73038696   -1.80466065   -0.00784323      17
Ni     0.00000000    0.00000000    0.00000000      18
          18
Lattice="  24.8920   0.0000   0.0000   0.0000  24.8920   0.0000   0.0000   0.0000  24.8920 " ConfE="      -5933.9359" DelE="          0.4271"
Cr     3.37061514   -0.00017245    0.12301383       1
Ni    -0.02073029    3.62445623   -0.04523448       2
Cr     0.08552432    0.03770217    3.38208924       3
Co    -0.02276889   -3.64262690    0.00129423       4
Co     0.04298882   -0.02198606   -3.60906171       5
Cr    -3.58590864    0.03982873   -0.04078798       6
Ni     1.74545923    1.90003264   -0.04704938       7
Ni     1.80208434   -1.96927138   -0.03163007       8
Co    -0.02758780    1.94619580    1.79934748       9
Ni     0.00443289    1.78717148   -1.80151575      10
Co    -0.03331948   -1.99623337    1.86296885      11
Ni    -1.70511956   -0.00906058   -1.74488077      12
Co     1.75483790   -0.06151291   -1.74457362      13
Co    -1.76144342    1.70680219    0.03112957      14
Cr    -1.73665078    0.02050001    1.72348462      15
Cr     0.04718364   -1.72671126   -1.71336493      16
Cr    -1.59889072   -1.74540400    0.02976986      17
Ni     0.64025360   -0.06912219    0.71030448      18
          18
Lattice="  24.8920   0.0000   0.0000   0.0000  24.8920   0.0000   0.0000   0.0000  24.8920 " ConfE="      -5934.4149" DelE="         -0.0520"
Cr     3.53596208   -0.02731795    0.03745611       1
Ni    -0.00005600    3.57356546   -0.03261752       2
Cr    -0.02652735    0.00285842    3.55427160       3
Co    -0.02230747   -3.60780388   -0.00031766       4
Co     0.03921098   -0.02708679   -3.61809414       5
Cr    -3.57524657    0.04256669   -0.04859273       6
Ni     1.70968357    1.74477193   -0.03221738       7
Ni     1.72573280   -1.78017635   -0.00217985       8
Co    -0.04635382    1.76178077    1.74388350       9
Ni     0.00435407    1.75331258   -1.79711730      10
Co    -0.04410783   -1.76779201    1.73799130      11
Ni    -1.71445479   -0.01657720   -1.76445251      12
Co     1.76988061   -0.06613832   -1.77947476      13
Co    -1.78145466    1.69397660    0.01611332      14
Cr    -1.73935139    0.03109058    1.70546596      15
Cr     0.03376456   -1.74056044   -1.74252382      16
Cr    -1.67487853   -1.75577713   -0.01158621      17
Ni     1.69936652    0.01094894    1.73811173      18
