          18
Lattice="  24.8920   0.0000   0.0000   0.0000  24.8920   0.0000   0.0000   0.0000  24.8920 " ConfE="      -5938.8414" DelE="          0.0000"
Cr     0.05335932   -0.10380540    3.61324953       1
Co    -0.00066345    3.54420438   -0.02055710       2
Cr     0.01014428   -0.08453552   -3.55547920       3
Cr     0.04798709   -3.63794069    0.01257032       4
Co    -3.54110996   -0.08041871   -0.03264394       5
Co     3.54836658   -0.07714538   -0.04348012       6
Ni    -1.70546825   -0.03473720    1.77486892       7
Ni     1.73000591   -0.02006239    1.73977963       8
Co    -1.77838905    1.75515120   -0.05515802       9
Ni     1.73967564    1.75183065   -0.03168153      10
Ni     0.03092008   -1.83891386    1.77258124      11
Co     0.00008041    1.70545965   -1.85422176      12
Ni     0.00780309   -1.82977386   -1.77928546      13
Ni    -1.73412743   -1.83322118    0.01635876      14
Cr     1.78662923   -1.81198557   -0.05360864      15
Co    -1.77397905   -0.05086887   -1.79994833      16
Co     1.79494106   -0.06319742   -1.83393297      17
Ni     0.00000000    0.00000000    0.00000000      18
          18
Lattice="  24.8920   0.0000   0.0000   0.0000  24.8920   0.0000   0.0000   0.0000  24.8920 " ConfE="      -5938.1858" DelE="          0.6556"
Cr     0.04257046   -0.06697654    3.55827881       1
Co    -0.00040108    3.52436095   -0.02700772       2
Cr     0.01890561   -0.07639951   -3.56012282       3
Cr     0.03938527   -3.63848147    0.03340692       4
Co    -3.59615464   -0.10182750   -0.04183900       5
Co     3.61141210   -0.09961213   -0.05047151       6
Ni    -1.87399584   -0.12433775    1.81162516       7
Ni     1.88247980   -0.09906023    1.75020579       8
Co    -1.94592065    1.78806859   -0.12427066       9
Ni     1.88630531    1.74653500   -0.09325949      10
Ni     0.03252927   -1.76494691    1.74862724      11
Co    -0.00094759    1.66980782   -1.78394554      12
Ni     0.00719770   -1.79743813   -1.74589689      13
Ni    -1.71913052   -1.79700315    0.01298472      14
Cr     1.76975651   -1.78512291   -0.05937084      15
Co    -1.75809491   -0.04188210   -1.76577152      16
Co     1.78489504   -0.07751180   -1.78836160      17
Ni    -0.02371486    1.01902881    1.02111802      18
          18
Lattice="  24.8920   0.0000   0.0000   0.0000  24.8920   0.0000   0.0000   0.0000  24.8920 " ConfE="      -5938.8124" DelE="          0.0289"
Cr     0.05752504   -0.10683713    3.61957073       1
Co     0.00177269    3.57732849   -0.04331002       2
Cr     0.02613174   -0.08937870   -3.56574838       3
Cr     0.04195589   -3.66619989    0.02229326       4
Co    -3.57397194   -0.09546535   -0.04009770       5
Co     3.58177812   -0.09223873   -0.04864520       6
Ni    -1.72610879   -0.07147944    1.73984859       7
Ni     1.73823101   -0.06137348    1.68678545       8
Co    -1.78631034    1.72364575   -0.07662708       9
Ni     1.74253441    1.70912588   -0.06953968      10
Ni     0.03445386   -1.81410737    1.74655841      11
Co    -0.00528768    1.66852976   -1.81077092      12
Ni     0.01470004   -1.81051474   -1.75304704      13
Ni    -1.71108258   -1.81830452    0.00457450      14
Cr     1.77755973   -1.82701106   -0.06596582      15
Co    -1.75066904   -0.05702133   -1.77088799      16
Co     1.78618251   -0.08214835   -1.80881189      17
Ni    -0.01063612    1.67083897    1.68041440      18
