          18
Lattice="  24.8920   0.0000   0.0000   0.0000  24.8920   0.0000   0.0000   0.0000  24.8920 " ConfE="      -5930.9932" DelE="          0.0000"
Co     0.04854538   -3.46871451    0.01232947       1
Cr     0.00255573    0.00031659   -3.56020630       2
Co     0.04951280    3.64767733    0.01926167       3
Cr     0.01385750    0.03961668    3.60754554       4
Co    -3.50333135    0.06293920    0.05420951       5
Cr     3.53136569    0.01431986    0.05864828       6
Ni    -1.73818960   -1.73211348   -0.02534581       7
Co     1.74643284   -1.71682126    0.03509190       8
Ni    -1.74230500    0.03196342   -1.75686149       9
Cr     1.63942132   -0.22162834   -1.81808860      10
Cr    -0.03677707   -1.76629668    1.86082419      11
Cr    -0.03542989    1.88081808   -1.74986099      12
Ni    -0.00822002    1.83389487    1.80336102      13
Cr    -1.77859086    0.05580208    1.79026588      14
Ni     1.76841372    0.03323323    1.82087688      15
Cr    -1.77588010    1.88217437    0.04904247      16
Cr     1.76690685    1.76498355   -0.04175156      17
Cr     0.00000000    0.00000000    0.00000000      18
          18
Lattice="  24.8920   0.0000   0.0000   0.0000  24.8920   0.0000   0.0000   0.0000  24.8920 " ConfE="      -5930.4923" DelE="          0.5010"
Co     0.05272606   -3.43665505    0.00139148       1
Cr    -0.01082551    0.01049330   -3.55118688       2
Co     0.07203961    3.63062736    0.01197699       3
Cr     0.01035198    0.01535108    3.59402426       4
Co    -3.57937510    0.06237596    0.07052354       5
Cr     3.65068271    0.03058788    0.13530422       6
Ni    -1.84528957   -1.74276394    0.00071828       7
Co     1.89986125   -1.73420873    0.11812659       8
Ni    -1.87481102    0.06529122   -1.74887609       9
Cr     1.93484502   -0.08983778   -1.85748904      10
Cr    -0.02893234   -1.74768167    1.79530050      11
Cr    -0.05208584    1.81771553   -1.76093263      12
Ni     0.01091826    1.79424021    1.77605535      13
Cr    -1.69208887    0.01741381    1.69073883      14
Ni     1.75968211    0.01416901    1.80330217      15
Cr    -1.68826440    1.79387999    0.03085206      16
Cr     1.64091803    1.55727166   -0.09283962      17
Cr     0.10480867   -0.93394076   -0.98220292      18
          18
Lattice="  24.8920   0.0000   0.0000   0.0000  24.8920   0.0000   0.0000   0.0000  24.8920 " ConfE="      -5931.3255" DelE="         -0.3322"
Co     0.03083375   -3.52938894    0.04422305       1
Cr     0.02004990    0.03339976   -3.58584819       2
Co     0.05603432    3.67252774    0.02274990       3
Cr     0.00714737    0.03005167    3.61066707       4
Co    -3.53722494    0.06666549    0.06542856       5
Cr     3.54013341    0.01576177    0.07557686       6
Ni    -1.74052548   -1.70418128    0.00832424       7
Co     1.69918598   -1.66453167    0.04082854       8
Ni    -1.72530246    0.06234276   -1.70547243       9
Cr     1.71587259   -0.03109786   -1.74923708      10
Cr    -0.03516366   -1.72518384    1.79923411      11
Cr    -0.02217170    1.84211957   -1.72399015      12
Ni    -0.00495417    1.81780996    1.79419343      13
Cr    -1.73136856    0.05509831    1.75569653      14
Ni     1.74104921    0.04071614    1.80603356      15
Cr    -1.71284998    1.85089065    0.05257528      16
Cr     1.69230201    1.71934003   -0.03110974      17
Cr     0.01003646   -1.74147111   -1.74884115      18
