          18
Lattice="  24.8920   0.0000   0.0000   0.0000  24.8920   0.0000   0.0000   0.0000  24.8920 " ConfE="      -5930.4609" DelE="          0.0000"
Ni     3.56841405   -0.03991368    0.03642215       1
Ni     0.11399422   -0.00958006    3.49553589       2
Ni     0.03432646   -3.55766496   -0.01253900       3
Cr     0.04514219    3.49424130   -0.03330680       4
Co     0.06813696   -0.05237905   -3.60661619       5
Cr    -3.53907814    0.00244360   -0.01664909       6
Ni     1.82129679   -1.76417683    0.04381562       7
Ni     0.07315155    1.73214533    1.75510639       8
Co     0.06721889   -1.76681188    1.78842520       9
Ni     0.03436322   -1.80636968   -1.79707297      10
Ni    -1.76107493   -1.78715566    0.00214791      11
Co     1.79653550    1.72471007    0.00504077      12
Cr     1.76073916   -0.01327110   -1.78862979      13
Cr    -1.77673493   -0.03226876    1.77613832      14
Cr    -1.73727920    1.73016178   -0.00336734      15
Cr    -1.68084261   -0.00582415   -1.82036546      16
Co     0.03428622    1.72917425   -1.81288197      17
Co     0.00000000    0.00000000    0.00000000      18
          18
Lattice="  24.8920   0.0000   0.0000   0.0000  24.8920   0.0000   0.0000   0.0000  24.8920 " ConfE="      -5929.2629" DelE="          1.1980"
Ni     3.53243694   -0.05521187    0.02247794       1
Ni     0.09413274   -0.00829349    3.45556829       2
Ni     0.02519959   -3.63054955   -0.02823531       3
Cr     0.01896638    3.59616249   -0.05020812       4
Co     0.06683492   -0.06402621   -3.57207447       5
Cr    -3.55065737   -0.00759333   -0.00567988       6
Ni     1.85353568   -1.95723573   -0.05460445       7
Ni     0.00778840    1.87045558    1.75271965       8
Co     0.00183428   -1.92743530    1.80219589       9
Ni     0.03532761   -1.83697639   -1.77413358      10
Ni    -1.71886339   -1.80405975    0.00558010      11
Co     1.79945232    1.85299534   -0.03310459      12
Cr     1.61872660   -0.01134589   -1.60782731      13
Cr    -1.63037705   -0.04698844    1.65410606      14
Cr    -1.70754027    1.71887535    0.02903641      15
Cr    -1.57914677   -0.01706990   -1.67008638      16
Co     0.03092843    1.70196878   -1.73273884      17
Co     1.13442062   -0.06032517    1.07499847      18
          18
Lattice="  24.8920   0.0000   0.0000   0.0000  24.8920   0.0000   0.0000   0.0000  24.8920 " ConfE="      -5930.0360" DelE="          0.4249"
Ni     3.62359014   -0.05123201   -0.01023476       1
Ni     0.07085590   -0.01867248    3.52548310       2
Ni     0.03134927   -3.58422447   -0.01449073       3
Cr     0.03525218    3.53607140   -0.04645552       4
Co     0.06483519   -0.05838630   -3.60169716       5
Cr    -3.59617091   -0.00858415   -0.02057221       6
Ni     1.81205097   -1.79245590   -0.00527298       7
Ni     0.04371014    1.70464666    1.69114637       8
Co     0.04624153   -1.77183080    1.76802405       9
Ni     0.03462395   -1.80162031   -1.78150928      10
Ni    -1.73779836   -1.77029350    0.00209032      11
Co     1.79059821    1.70394354   -0.02381746      12
Cr     1.69999449   -0.00509942   -1.70234081      13
Cr    -1.72316327   -0.04631179    1.71345681      14
Cr    -1.75651185    1.70115916    0.00599410      15
Cr    -1.61664007   -0.00455572   -1.72491525      16
Co     0.02641823    1.68175045   -1.74801199      17
Co     1.83560740   -0.05355266    1.73401466      18
