          18
Lattice="  24.8920   0.0000   0.0000   0.0000  24.8920   0.0000   0.0000   0.0000  24.8920 " ConfE="      -5937.8692" DelE="          0.0000"
Cr     0.03393429   -0.04643713    3.44303248       1
Ni    -0.03579154    0.08439456   -3.67127233       2
Co    -0.02627938   -3.45092087   -0.12900728       3
Cr     3.54161877   -0.04307585   -0.14440821       4
Cr    -3.57294781    0.02393214   -0.11820880       5
Co    -0.02356334    3.61675854   -0.08582849       6
Ni     1.78807096    0.04412495    1.70182489       7
Ni    -0.00511762    1.84715680    1.73279194       8
Cr     1.71890623   -1.77333530   -0.06288501       9
Co    -1.76559967   -1.73469675   -0.02640685      10
Cr    -1.75017006   -0.04790238    1.74263470      11
Ni     1.76058070    1.82550155   -0.06652096      12
Cr    -0.05180107   -1.73187133   -1.90104155      13
Cr    -1.78778377   -0.00708025   -1.83143774      14
Cr    -0.09146731    1.84103968   -1.81238074      15
Co     1.69219893    0.02527549   -1.84991745      16
Co    -1.79220683    1.78927008   -0.06359131      17
Ni     0.00000000    0.00000000    0.00000000      18
          18
Lattice="  24.8920   0.0000   0.0000   0.0000  24.8920   0.0000   0.0000   0.0000  24.8920 " ConfE="      -5937.4110" DelE="          0.4583"
Cr     0.05928272   -0.08191349    3.37514211       1
Ni    -0.04153243    0.07129256   -3.66310022       2
Co    -0.03741777   -3.43805562   -0.12718453       3
Cr     3.60842995   -0.02374483   -0.16966505       4
Cr    -3.63372555    0.02762188   -0.11312753       5
Co    -0.01834742    3.62667717   -0.08518430       6
Ni     1.97163890    0.11173610    1.71046157       7
Ni     0.00822603    1.76412821    1.69170741       8
Cr     1.88071323   -1.77453585   -0.13317803       9
Co    -1.94401308   -1.80622186   -0.08391687      10
Cr    -1.92970908    0.02597237    1.75555269      11
Ni     1.77786321    1.83410994   -0.06688978      12
Cr    -0.03945755   -1.65297706   -1.78708120      13
Cr    -1.77754713   -0.03050679   -1.74979417      14
Cr    -0.10004837    1.73372662   -1.74628207      15
Co     1.66718529    0.03324630   -1.79731372      16
Co    -1.77103982    1.75737246   -0.06886101      17
Ni    -0.00236994   -0.74845912    0.74856992      18
          18
Lattice="  24.8920   0.0000   0.0000   0.0000  24.8920   0.0000   0.0000   0.0000  24.8920 " ConfE="      -5937.9711" DelE="         -0.1018"
Cr     0.02762289    0.02750399    3.51263032       1
Ni    -0.04249211    0.08800943   -3.68150382       2
Co    -0.03077944   -3.49635579   -0.14479947       3
Cr     3.57346824   -0.01753088   -0.14342547       4
Cr    -3.61494223    0.03462728   -0.12509297       5
Co    -0.02115995    3.64247310   -0.08962250       6
Ni     1.77169053    0.06360119    1.66734688       7
Ni    -0.00489342    1.81287209    1.70657505       8
Cr     1.72393737   -1.70072368   -0.14145641       9
Co    -1.75458815   -1.66234587   -0.08980319      10
Cr    -1.76304912    0.04351984    1.65393272      11
Ni     1.73399768    1.81375111   -0.07457600      12
Cr    -0.05238332   -1.68334266   -1.84162138      13
Cr    -1.75846385    0.02933977   -1.77373341      14
Cr    -0.09468385    1.82020046   -1.79909397      15
Co     1.63244509    0.03611252   -1.79747206      16
Co    -1.75260348    1.76508328   -0.07755635      17
Ni    -0.00067090   -1.67288688    1.64723801      18
