          23
Lattice="  24.8920   0.0000   0.0000   0.0000  24.8920   0.0000   0.0000   0.0000  24.8920 " ConfE="      -5935.0781" DelE="          0.0000"
Cr     2.54739576   -0.03634129   -2.30875796       1
Co    -2.76046173    0.01724312    2.88291104       2
Co     2.57673255    1.76714270   -0.58640937       3
Co     2.49798871   -1.75172708   -0.63042508       4
Cr     0.80356558    3.56076001   -0.53546513       5
Co     0.73260662   -3.52364740   -0.62156185       6
Cr    -2.69072915    1.65469938    1.11288576       7
Co    -2.75140528   -1.72229891    1.16648187       8
Ni    -0.98811254    1.77388649    2.88502414       9
Cr    -0.97689531   -1.69573044    2.79086874      10
Co    -1.03221881   -3.57006147    1.19551038      11
Ni    -1.04504766    3.61020426    1.18745302      12
Co    -1.00840169    0.03332522   -2.35331043      13
Ni     2.49759772   -0.00968097    1.13748813      14
Cr     0.76377610    1.55533162   -2.08151780      15
Cr     0.69385939   -1.55408413   -2.07626079      16
Co    -2.70305002    0.01205845   -0.56372064      17
Cr     0.66856440   -0.03311781    2.77884891      18
Cr    -1.11072878   -1.88790870   -0.52160997      19
Co    -1.08257228    1.95284490   -0.63977761      20
Co     0.79849044    1.86563370    1.16288662      21
Co     0.76702131   -1.86442673    1.18657400      22
Co     0.00000000    0.00000000    0.00000000      23
          23
Lattice="  24.8920   0.0000   0.0000   0.0000  24.8920   0.0000   0.0000   0.0000  24.8920 " ConfE="      -5935.0284" DelE="          0.0497"
Cr     2.57375174   -0.03535378   -2.33309422       1
Co    -2.74076637    0.01264016    2.86537482       2
Co     2.57137695    1.75816519   -0.58851272       3
Co     2.50235311   -1.74103818   -0.62570457       4
Cr     0.81762333    3.57911165   -0.54675327       5
Co     0.73374881   -3.52347546   -0.61875504       6
Cr    -2.63924091    1.60932234    1.10055834       7
Co    -2.76905507   -1.72748934    1.15604520       8
Ni    -0.97649379    1.78015373    2.90112269       9
Cr    -0.97363048   -1.70030143    2.80533277      10
Co    -1.03161151   -3.55708220    1.19366745      11
Ni    -1.03569315    3.59466548    1.18097752      12
Co    -1.01076272    0.03393041   -2.31714118      13
Ni     2.49089993   -0.00616949    1.13687860      14
Cr     0.77424616    1.53717279   -2.05306283      15
Cr     0.69065382   -1.51021516   -2.01371941      16
Co    -2.77265934    0.00572220   -0.59679597      17
Cr     0.67464286   -0.03313066    2.79739918      18
Cr    -1.12549729   -1.91423675   -0.53685838      19
Co    -1.07072132    1.97112905   -0.67454442      20
Co     0.80359108    1.85108776    1.14115793      21
Co     0.77372531   -1.85033196    1.17468267      22
Co    -0.31138431   -0.00388443    0.24588347      23
          23
Lattice="  24.8920   0.0000   0.0000   0.0000  24.8920   0.0000   0.0000   0.0000  24.8920 " ConfE="      -5935.6330" DelE="         -0.5549"
Cr     2.57624490   -0.02423999   -2.36577500       1
Co    -2.79313394    0.00849675    2.92765520       2
Co     2.54499399    1.73780095   -0.61160795       3
Co     2.48799015   -1.71925892   -0.65528649       4
Cr     0.79290732    3.52925237   -0.54440355       5
Co     0.72895390   -3.49203841   -0.62722493       6
Cr    -2.74619094    1.70682770    1.12777918       7
Co    -2.79606454   -1.74014979    1.16111755       8
Ni    -0.98945186    1.78779165    2.94066908       9
Cr    -0.99280201   -1.74077470    2.91612462      10
Co    -1.03071161   -3.49640168    1.18403564      11
Ni    -1.02676898    3.55096523    1.17350294      12
Co    -0.98053149    0.02542112   -2.35797753      13
Ni     2.51433955   -0.00094444    1.15901004      14
Cr     0.77877123    1.58783715   -2.18019479      15
Cr     0.75644362   -1.58891118   -2.19844150      16
Co    -2.81391243   -0.00705459   -0.62139303      17
Cr     0.72769890   -0.04029042    2.91782064      18
Cr    -0.99148714   -1.72091996   -0.57174412      19
Co    -0.98619320    1.74816583   -0.61638728      20
Co     0.77791373    1.73887514    1.12945667      21
Co     0.73915904   -1.73147846    1.12195761      22
Co    -1.00055230    0.00546501    1.14035651      23
