          18
Lattice="  24.8920   0.0000   0.0000   0.0000  24.8920   0.0000   0.0000   0.0000  24.8920 " ConfE="      -5938.4641" DelE="          0.0000"
Ni    -3.48519528   -0.02818622   -0.00590694       1
Ni    -0.01458951   -0.01201367    3.49669626       2
Cr     3.54617488    0.03890313   -0.01633753       3
Co     0.00136436   -0.02542357   -3.62387164       4
Co     0.02786357    3.50156553   -0.02644310       5
Cr     0.01479861   -3.53753992   -0.00530738       6
Ni    -1.75656425   -1.78161910    0.01270794       7
Ni    -0.02779057   -1.76336003    1.76142194       8
Co    -1.71402429    1.73087865   -0.03342216       9
Cr    -0.11990946    1.67577589    1.72347153      10
Ni     1.73787981   -0.00574087   -1.83241242      11
Co    -1.78469046   -0.03418424   -1.85130627      12
Co     1.82559667   -0.01474857    1.74109373      13
Cr     1.74624098    1.73568945   -0.03853688      14
Cr    -0.02332542    1.72213840   -1.81220251      15
Co     1.82730334   -1.76172752   -0.04539900      16
Co    -0.00952415   -1.78666297   -1.79547579      17
Co     0.00000000    0.00000000    0.00000000      18
          18
Lattice="  24.8920   0.0000   0.0000   0.0000  24.8920   0.0000   0.0000   0.0000  24.8920 " ConfE="      -5937.6388" DelE="          0.8253"
Ni    -3.46350232   -0.03871538   -0.05671943       1
Ni    -0.03846253    0.00179460    3.48133373       2
Cr     3.52857895    0.04751329    0.04795901       3
Co     0.00222566   -0.03246317   -3.64061293       4
Co     0.03236192    3.55749595   -0.03750972       5
Cr     0.03404786   -3.61765577   -0.02041238       6
Ni    -1.73931776   -1.88464097   -0.04426316       7
Ni     0.01050961   -1.90068564    1.77599930       8
Co    -1.74000042    1.89712982   -0.19340165       9
Cr    -0.06586030    1.91562827    1.80507771      10
Ni     1.68112854   -0.00465735   -1.77310237      11
Co    -1.69716253   -0.02786433   -1.79206303      12
Co     1.67374901    0.00958113    1.68148724      13
Cr     1.66461700    1.71451973   -0.01570088      14
Cr    -0.05037634    1.67499427   -1.77804094      15
Co     1.78353515   -1.75876865   -0.02714806      16
Co    -0.00405737   -1.80074502   -1.78130855      17
Co    -1.00770009    0.09367395    1.02304133      18
          18
Lattice="  24.8920   0.0000   0.0000   0.0000  24.8920   0.0000   0.0000   0.0000  24.8920 " ConfE="      -5938.3235" DelE="          0.1406"
Ni    -3.51781220   -0.02106396   -0.03651241       1
Ni     0.03485905   -0.01437853    3.53453374       2
Cr     3.58002579    0.03312387   -0.01644649       3
Co     0.00278145   -0.02899952   -3.63323854       4
Co     0.02805924    3.52748666   -0.02525265       5
Cr     0.01752801   -3.56920053   -0.00817145       6
Ni    -1.72921530   -1.77632977   -0.01166556       7
Ni     0.01092119   -1.76544658    1.72855279       8
Co    -1.65979942    1.71054666   -0.06868782       9
Cr    -0.06693337    1.66956075    1.67356195      10
Ni     1.70621955   -0.00316688   -1.79350200      11
Co    -1.76042501   -0.03635053   -1.82995769      12
Co     1.78963914   -0.00538133    1.69893040      13
Cr     1.72696683    1.70722605   -0.03258016      14
Cr    -0.04153331    1.66965705   -1.74621705      15
Co     1.81713966   -1.75282792   -0.04580929      16
Co    -0.00429783   -1.77852672   -1.77354010      17
Co    -1.72394170    0.00041207    1.73944124      18
