          18
Lattice="  24.8920   0.0000   0.0000   0.0000  24.8920   0.0000   0.0000   0.0000  24.8920 " ConfE="      -5946.2103" DelE="          0.0000"
Ni    -0.09839441   -0.04118455   -3.47818454       1
Ni    -3.62747907   -0.03540606    0.06090924       2
Co     3.37019125   -0.04677616    0.03601802       3
Cr    -0.07209701   -3.56065034    0.07882752       4
Co    -0.06271341    3.50247041    0.07711499       5
Cr    -0.15196205   -0.12212847    3.63966457       6
Ni    -0.05872105   -1.76734780   -1.70943705       7
Co    -0.06416122    1.70401704   -1.70456675       8
Ni    -0.10139271    1.71968486    1.86149033       9
Cr     1.66927752   -1.75255110    0.05314442      10
Co     1.67675143    1.68304836    0.05077298      11
Ni    -1.86410321    1.73778589    0.04969860      12
Ni    -1.85217466   -0.03218017    1.84183501      13
Co    -0.08985710   -1.83132417    1.83178229      14
Co     1.66241718   -0.05138376    1.87609790      15
Co    -1.90995856   -0.04515239   -1.71292951      16
Co    -1.84345066   -1.81753910    0.05241369      17
Cr     0.00000000    0.00000000    0.00000000      18
          18
Lattice="  24.8920   0.0000   0.0000   0.0000  24.8920   0.0000   0.0000   0.0000  24.8920 " ConfE="      -5945.6804" DelE="          0.5298"
Ni    -0.08496050   -0.04900711   -3.43330455       1
Ni    -3.62029313   -0.03258647    0.05094071       2
Co     3.31685850   -0.02479860    0.04068893       3
Cr    -0.10996116   -3.64072758    0.10400513       4
Co    -0.07586444    3.56260417    0.08963165       5
Cr    -0.14675932   -0.12651102    3.62912672       6
Ni    -0.10616661   -1.90469877   -1.72137621       7
Co    -0.08841959    1.82858844   -1.75048073       8
Ni    -0.09430236    1.70323852    1.83440760       9
Cr     1.67909332   -1.89900246    0.09327272      10
Co     1.69963400    1.87210310    0.14295879      11
Ni    -1.78896955    1.70237656    0.03830145      12
Ni    -1.81944982   -0.04883939    1.81520901      13
Co    -0.08399158   -1.83699094    1.78293330      14
Co     1.62459717   -0.05424688    1.82018865      15
Co    -1.83789227   -0.05401243   -1.68100474      16
Co    -1.83777182   -1.83298673    0.04299887      17
Cr     0.65169673    0.04497356   -0.62212088      18
          18
Lattice="  24.8920   0.0000   0.0000   0.0000  24.8920   0.0000   0.0000   0.0000  24.8920 " ConfE="      -5946.2038" DelE="          0.0064"
Ni    -0.11899408   -0.03805190   -3.51031894       1
Ni    -3.63597551   -0.03245907    0.05754310       2
Co     3.45350150   -0.04247937    0.08958721       3
Cr    -0.10104789   -3.59125601    0.08385885       4
Co    -0.06319073    3.53308109    0.08228841       5
Cr    -0.16249365   -0.12618346    3.64032812       6
Ni    -0.11755423   -1.76859272   -1.66921898       7
Co    -0.07092544    1.70854610   -1.70398404       8
Ni    -0.10567168    1.69894942    1.84628223       9
Cr     1.58780007   -1.73991879    0.11543767      10
Co     1.65701088    1.68923930    0.08209219      11
Ni    -1.82389029    1.70483619    0.04398474      12
Ni    -1.84243772   -0.04488136    1.82993083      13
Co    -0.10546123   -1.83672377    1.81696821      14
Co     1.62638154   -0.06965651    1.80007764      15
Co    -1.88828365   -0.04327937   -1.70847067      16
Co    -1.87858925   -1.83092788    0.05961646      17
Cr     1.61620120    0.01674997   -1.59785132      18
