          18
Lattice="  24.8920   0.0000   0.0000   0.0000  24.8920   0.0000   0.0000   0.0000  24.8920 " ConfE="      -5945.9654" DelE="          0.0000"
Cr     0.04561878   -0.00065545   -3.63844246       1
Co    -0.02662378   -3.45807248   -0.12434703       2
Co     0.01098449    0.07587140    3.45382712       3
Ni    -0.00929451    3.60011420   -0.03499363       4
Cr     3.52694316    0.03734971   -0.07611778       5
Co    -3.53455806    0.02835633   -0.07027139       6
Co     1.69863571   -0.00610934   -1.80667244       7
Ni    -1.70605524    0.04633745   -1.85123282       8
Cr     1.77241627   -1.75172701   -0.10349649       9
Ni    -1.74193424   -1.73202567   -0.11223108      10
Ni     0.01104822    1.84512079   -1.83105314      11
Co    -0.01924052   -1.71560046    1.70771549      12
Cr     0.01503896    1.78069938    1.78854671      13
Cr     1.78101666    1.81836355   -0.00092423      14
Ni    -1.74199393    1.82306713   -0.05958770      15
Co     1.78791706    0.02140316    1.68745716      16
Co    -1.78605689    0.03177513    1.71506229      17
Cr     0.00000000    0.00000000    0.00000000      18
          18
Lattice="  24.8920   0.0000   0.0000   0.0000  24.8920   0.0000   0.0000   0.0000  24.8920 " ConfE="      -5945.2579" DelE="          0.7075"
Cr     0.03243438   -0.01868177   -3.62357519       1
Co    -0.04506724   -3.43611037   -0.12664543       2
Co     0.00882408    0.06766723    3.46654597       3
Ni    -0.00193595    3.57097374   -0.04508487       4
Cr     3.65480431    0.06249291   -0.06132112       5
Co    -3.61652877    0.03479526   -0.04425460       6
Co     1.90013586    0.06529899   -1.87981040       7
Ni    -1.83549518    0.06584108   -1.84476224       8
Cr     1.92987936   -1.76610360   -0.05659092       9
Ni    -1.88730846   -1.72720639   -0.03607453      10
Ni     0.02099935    1.73439335   -1.81685733      11
Co    -0.02847678   -1.68146197    1.63307483      12
Cr     0.02117160    1.68449734    1.73026400      13
Cr     1.74360515    1.69910814   -0.01971355      14
Ni    -1.71534525    1.76224671   -0.05580922      15
Co     1.73334295    0.00984557    1.59081406      16
Co    -1.76245011    0.03795357    1.69845413      17
Cr     0.10888959   -0.88220351   -0.89128254      18
          18
Lattice="  24.8920   0.0000   0.0000   0.0000  24.8920   0.0000   0.0000   0.0000  24.8920 " ConfE="      -5945.9431" DelE="          0.0223"
Cr     0.03271952    0.03831714   -3.65820754       1
Co    -0.03005453   -3.51108848   -0.09307772       2
Co     0.00794938    0.07452710    3.48642392       3
Ni    -0.00689407    3.60140380   -0.03202615       4
Cr     3.58783826    0.05475636   -0.05233444       5
Co    -3.57077497    0.03223127   -0.05879154       6
Co     1.73670791    0.03622270   -1.79209462       7
Ni    -1.73133704    0.07310005   -1.83036699       8
Cr     1.77880918   -1.70575654   -0.06276907       9
Ni    -1.73799180   -1.68500286   -0.07796377      10
Ni     0.01734253    1.80890605   -1.81260130      11
Co    -0.01068890   -1.67607340    1.64256112      12
Cr     0.01316164    1.71368751    1.75266531      13
Cr     1.76312474    1.78526110    0.02149564      14
Ni    -1.70695322    1.79181539   -0.04293018      15
Co     1.73401241    0.04150848    1.62714446      16
Co    -1.76135468    0.05155227    1.72111356      17
Cr     0.05771987   -1.66376026   -1.76899098      18
