          18
Lattice="  24.8920   0.0000   0.0000   0.0000  24.8920   0.0000   0.0000   0.0000  24.8920 " ConfE="      -5943.3297" DelE="          0.0000"
Co    -0.07134528   -3.62472572    0.00982422       1
Ni    -0.06063633   -0.05263452    3.47085285       2
Co    -0.04111077    3.57492696   -0.02414178       3
Cr     0.00805844   -0.03132219   -3.51210174       4
Co    -3.59648288    0.00659535   -0.05319651       5
Cr     3.47101816   -0.03323603   -0.06706233       6
Ni    -1.78165441   -1.80802311    0.01615696       7
Ni     1.67234997   -1.82374887   -0.00718331       8
Ni    -1.78860215    0.00171979    1.69913206       9
Cr     1.66446705    0.00358339    1.66497399      10
Ni    -0.05130618   -1.83300686   -1.80630891      11
Co    -0.08287541    1.81433097    1.71660810      12
Co    -0.06695100    1.75931310   -1.78512261      13
Ni    -1.81489287   -0.04043609   -1.76212932      14
Co     1.73034394    0.00534776   -1.76837369      15
Cr    -1.76936237    1.78504966   -0.04963043      16
Co     1.72577791    1.79769584   -0.02157027      17
Co     0.00000000    0.00000000    0.00000000      18
          18
Lattice="  24.8920   0.0000   0.0000   0.0000  24.8920   0.0000   0.0000   0.0000  24.8920 " ConfE="      -5942.5378" DelE="          0.7918"
Co    -0.05216049   -3.54461696    0.02673133       1
Ni    -0.06368982   -0.06024925    3.43633634       2
Co    -0.03809321    3.56313059   -0.01875793       3
Cr     0.00079030   -0.04218868   -3.52389526       4
Co    -3.66214774    0.01471513   -0.05565634       5
Cr     3.55031738   -0.02250063   -0.07577374       6
Ni    -1.92249052   -1.83403452   -0.00909454       7
Ni     1.85120198   -1.85736185   -0.08859951       8
Ni    -1.96186088    0.03458486    1.75096972       9
Cr     1.85264180    0.04671136    1.69497607      10
Ni    -0.03815187   -1.79588389   -1.74039437      11
Co    -0.10889847    1.72778303    1.66647046      12
Co    -0.07373014    1.70141088   -1.73343698      13
Ni    -1.80122971   -0.04678725   -1.70264872      14
Co     1.73237175    0.00002662   -1.74529363      15
Cr    -1.75304125    1.74111617   -0.00655120      16
Co     1.70460210    1.72010204   -0.00011478      17
Co     0.02896018   -0.76094474    0.83454202      18
          18
Lattice="  24.8920   0.0000   0.0000   0.0000  24.8920   0.0000   0.0000   0.0000  24.8920 " ConfE="      -5943.2686" DelE="          0.0611"
Co    -0.05633732   -3.63075222   -0.01109659       1
Ni    -0.07872457    0.00277286    3.52042337       2
Co    -0.03902168    3.58414725   -0.02372748       3
Cr     0.00197467   -0.03244557   -3.54470643       4
Co    -3.60878826    0.01324260   -0.06109600       5
Cr     3.51413574   -0.03395618   -0.07799913       6
Ni    -1.78070512   -1.79152428   -0.00966768       7
Ni     1.68186939   -1.78208674   -0.05015482       8
Ni    -1.76338223    0.03001064    1.64989955       9
Cr     1.62812796    0.04413777    1.62945876      10
Ni    -0.04708154   -1.81006711   -1.79233528      11
Co    -0.06866614    1.76627880    1.67906007      12
Co    -0.07816759    1.72841712   -1.75226267      13
Ni    -1.78939819   -0.03331871   -1.73726727      14
Co     1.70073797    0.01272981   -1.75948130      15
Cr    -1.75743739    1.80228530   -0.06752224      16
Co     1.68813676    1.73990594   -0.02378219      17
Co     0.00791436   -1.75285144    1.74929043      18
