          18
Lattice="  24.8920   0.0000   0.0000   0.0000  24.8920   0.0000   0.0000   0.0000  24.8920 " ConfE="      -5949.7051" DelE="          0.0000"
Ni     3.47626418   -0.05658352    0.01315163       1
Ni    -0.01541522    3.48862157   -0.01123594       2
Ni    -0.01960678   -0.00659589    3.58142217       3
Ni    -0.00995965   -0.04469271   -3.53590163       4
Cr    -3.55315333   -0.10139291    0.01379400       5
Co    -0.01198340   -3.60516772    0.04434014       6
Ni     1.72993165    0.00428344    1.75514733       7
Ni    -1.79925580    1.71032833    0.00905443       8
Ni    -1.77891438   -1.82200275    0.01862783       9
Co    -0.03737462    1.73855162    1.81998445      10
Co     0.06733345    1.75307034   -1.73487139      11
Cr     1.69378745   -0.07754514   -1.74682676      12
Ni    -0.03128548   -1.80008061    1.79815202      13
Cr     1.70343133   -1.87876916   -0.00030632      14
Co    -1.80889462   -0.03712803    1.84488168      15
Co    -1.77815304   -0.06869643   -1.78145066      16
Co    -0.00220157   -1.83308299   -1.75202319      17
Ni     0.00000000    0.00000000    0.00000000      18
          18
Lattice="  24.8920   0.0000   0.0000   0.0000  24.8920   0.0000   0.0000   0.0000  24.8920 " ConfE="      -5949.0998" DelE="          0.6052"
Ni     3.46274746   -0.05294668    0.02654189       1
Ni    -0.01716985    3.45087405   -0.00913615       2
Ni    -0.03608054   -0.03482034    3.63883834       3
Ni    -0.03373715   -0.06551073   -3.59749979       4
Cr    -3.56176018   -0.09878609    0.00864017       5
Co    -0.01112378   -3.60987444    0.04888569       6
Ni     1.74687245   -0.04791188    1.88967462       7
Ni    -1.71456789    1.64498166    0.00988279       8
Ni    -1.76725431   -1.79853253    0.01732065       9
Co    -0.10136534    1.72938521    1.95063486      10
Co    -0.10907548    1.77350585   -1.94650766      11
Cr     1.70471119   -0.14483848   -1.90349379      12
Ni    -0.03585246   -1.76689176    1.77657812      13
Cr     1.63502248   -1.73609810   -0.01228345      14
Co    -1.80342406   -0.04631978    1.84411452      15
Co    -1.75879751   -0.08045417   -1.77703810      16
Co     0.01137302   -1.77633362   -1.71493432      17
Ni     1.04620551    1.06687981   -0.06530914      18
          18
Lattice="  24.8920   0.0000   0.0000   0.0000  24.8920   0.0000   0.0000   0.0000  24.8920 " ConfE="      -5949.5276" DelE="          0.1774"
Ni     3.51961177   -0.08111301    0.02016861       1
Ni    -0.03837736    3.50637381   -0.01958834       2
Ni    -0.02964564   -0.01834994    3.59803803       3
Ni    -0.02097159   -0.05950157   -3.56001901       4
Cr    -3.57071172   -0.10359771    0.01492574       5
Co    -0.02113284   -3.62860716    0.04912995       6
Ni     1.69705160   -0.05511772    1.75795468       7
Ni    -1.76231769    1.66259833    0.01539802       8
Ni    -1.76955920   -1.80054548    0.02017386       9
Co    -0.06428457    1.70919901    1.82611035      10
Co    -0.02615861    1.69363307   -1.76210996      11
Cr     1.63127611   -0.12243164   -1.72681211      12
Ni    -0.04582601   -1.79345876    1.77438855      13
Cr     1.67581953   -1.83464803   -0.00551783      14
Co    -1.81085160   -0.04835424    1.83857230      15
Co    -1.76797429   -0.08484283   -1.76144990      16
Co     0.01059645   -1.79272201   -1.70210216      17
Ni     1.65874775    1.63512428    0.00060354      18
