          18
Lattice="  24.8920   0.0000   0.0000   0.0000  24.8920   0.0000   0.0000   0.0000  24.8920 " ConfE="      -5929.5291" DelE="          0.0000"
Ni     3.46035883    0.02503720   -0.09733026       1
Ni    -3.60510520    0.06492790   -0.08929019       2
Cr    -0.07237839   -3.54341406   -0.11113684       3
Co     0.01470693   -0.02035462   -3.68556314       4
Cr    -0.06274722    0.11175971    3.31582322       5
Cr    -0.01416545    3.63562613   -0.04418202       6
Ni     1.69159326   -0.00143061   -1.80780389       7
Ni    -0.03204106   -1.74444860    1.61843820       8
Ni     1.71429442    1.84728424   -0.08291802       9
Co     1.71909128    0.05662158    1.67373422      10
Ni    -0.05367599    1.81667123   -1.84110296      11
Co    -0.01941538   -1.78516285   -1.84241945      12
Ni    -1.78269419    0.03988597   -1.86336280      13
Ni    -1.79963735    1.82214753   -0.08721716      14
Ni    -1.84485095   -1.72816487   -0.09006025      15
Co    -0.04751744    1.82625928    1.70942448      16
Co    -1.85543823    0.06990610    1.68343170      17
Cr     0.00000000    0.00000000    0.00000000      18
          18
Lattice="  24.8920   0.0000   0.0000   0.0000  24.8920   0.0000   0.0000   0.0000  24.8920 " ConfE="      -5928.8945" DelE="          0.6346"
Ni     3.39359505    0.00493184   -0.11912968       1
Ni    -3.59211133    0.05674974   -0.09087258       2
Cr    -0.06016185   -3.50674134   -0.09464193       3
Co     0.00166662   -0.00937883   -3.78219343       4
Cr    -0.08931785    0.14478863    3.46616697       5
Cr    -0.00940203    3.59973262   -0.05017581       6
Ni     1.72927219    0.05289463   -2.00779296       7
Ni    -0.10324608   -1.73303446    1.79495603       8
Ni     1.66003035    1.76552091   -0.09708135       9
Co     1.72775918    0.08271284    1.76427253      10
Ni    -0.04344662    1.78883720   -1.87318259      11
Co    -0.03362397   -1.78287980   -1.97982120      12
Ni    -1.75236315    0.02969163   -1.87333489      13
Ni    -1.74474568    1.77171582   -0.09008268      14
Ni    -1.75712192   -1.68452298   -0.08235148      15
Co    -0.04996683    1.76654273    1.72689633      16
Co    -1.83438147    0.07011721    1.69796451      17
Cr     0.76698369   -0.78638187   -0.08803380      18
          18
Lattice="  24.8920   0.0000   0.0000   0.0000  24.8920   0.0000   0.0000   0.0000  24.8920 " ConfE="      -5929.8895" DelE="         -0.3604"
Ni     3.47956407    0.04664053   -0.10227468       1
Ni    -3.60440798    0.06744495   -0.09471754       2
Cr    -0.09489537   -3.57759557   -0.08142629       3
Co     0.00733513   -0.00640356   -3.72381566       4
Cr    -0.06268942    0.13840016    3.38544741       5
Cr    -0.01643697    3.63529642   -0.03380146       6
Ni     1.65321518    0.04415298   -1.81672831       7
Ni    -0.05841688   -1.66923570    1.62007179       8
Ni     1.66944635    1.80566189   -0.07705910       9
Co     1.71270864    0.06797981    1.68010384      10
Ni    -0.07054889    1.83631205   -1.84354221      11
Co    -0.04519624   -1.77781134   -1.88835089      12
Ni    -1.77971187    0.05785283   -1.87559201      13
Ni    -1.77877133    1.81252446   -0.08208218      14
Ni    -1.78693453   -1.69014714   -0.10137380      15
Co    -0.05211167    1.80216516    1.72917595      16
Co    -1.84925521    0.08397951    1.68473232      17
Cr     1.66938318   -1.76102190   -0.13099817      18
