          18
Lattice="  24.8920   0.0000   0.0000   0.0000  24.8920   0.0000   0.0000   0.0000  24.8920 " ConfE="      -5934.6771" DelE="          0.0000"
Ni     0.02784808   -3.42858106    0.01947180       1
Cr     3.57745469    0.03043704   -0.06550588       2
Co     0.03595917    0.08098487    3.52189687       3
Co     0.02722176    0.07805511   -3.52469543       4
Cr     0.03610888    3.63480955   -0.07050737       5
Co    -3.54734294    0.08926706    0.03080684       6
Ni     1.81573911    0.03182476    1.70494256       7
Ni     0.01594594   -1.67977680    1.76873155       8
Cr     1.76958453   -0.03318176   -1.75863358       9
Co     0.06025931   -1.63817717   -1.71976480      10
Co     1.81119070    1.83605626   -0.06136590      11
Co    -1.83713921   -1.66330359    0.02210221      12
Cr     0.01698041    1.77915429    1.69050042      13
Co    -1.74951953    0.07892809    1.78156127      14
Cr    -0.07473323    1.73512735   -1.69602011      15
Co    -1.77198447    0.07340810   -1.76700959      16
Co    -1.73805019    1.85239162    0.01980589      17
Cr     0.00000000    0.00000000    0.00000000      18
          18
Lattice="  24.8920   0.0000   0.0000   0.0000  24.8920   0.0000   0.0000   0.0000  24.8920 " ConfE="      -5933.9284" DelE="          0.7487"
Ni     0.00450546   -3.42049187    0.01821829       1
Cr     3.63069238    0.04839334   -0.03194709       2
Co     0.01912181    0.09292889    3.59946952       3
Co     0.01313453    0.11053691   -3.57976155       4
Cr     0.04200964    3.56584096   -0.09331127       5
Co    -3.56949252    0.07236788    0.03722296       6
Ni     1.83002115    0.08331498    1.86973894       7
Ni    -0.02553215   -1.66289549    1.85698643       8
Cr     1.80860815    0.08401897   -1.93306807       9
Co    -0.03664299   -1.63800780   -1.84254047      10
Co     1.80223164    1.71705048   -0.03384868      11
Co    -1.75184199   -1.61779289    0.00939114      12
Cr    -0.00753356    1.63933066    1.59149112      13
Co    -1.70902846    0.08325806    1.75577937      14
Cr    -0.09050336    1.50158503   -1.47006170      15
Co    -1.78120269    0.05786368   -1.75763690      16
Co    -1.76343964    1.82880733    0.03575564      17
Cr     1.21159358   -1.09892395   -0.04202742      18
          18
Lattice="  24.8920   0.0000   0.0000   0.0000  24.8920   0.0000   0.0000   0.0000  24.8920 " ConfE="      -5934.3873" DelE="          0.2898"
Ni     0.00142558   -3.46726748    0.01196657       1
Cr     3.63130359    0.06954422   -0.07207697       2
Co     0.02788739    0.08629952    3.54997479       3
Co     0.02454299    0.08844522   -3.54416550       4
Cr     0.03574789    3.62204028   -0.08452447       5
Co    -3.58319228    0.08585930    0.02956166       6
Ni     1.79020906    0.07212605    1.71942553       7
Ni    -0.00708082   -1.63022773    1.72624549       8
Cr     1.73894127    0.02464210   -1.79146049       9
Co     0.04085934   -1.61542845   -1.70006786      10
Co     1.79900918    1.78615533   -0.06914834      11
Co    -1.82510759   -1.64634084    0.02790635      12
Cr    -0.02278276    1.74433776    1.61324463      13
Co    -1.72560582    0.10200977    1.75623448      14
Cr    -0.10059544    1.62699260   -1.54051142      15
Co    -1.75283985    0.06642343   -1.73915763      16
Co    -1.74868333    1.83448144    0.03151585      17
Cr     1.76775623   -1.64862636   -0.02809707      18
