          18
Lattice="  24.8920   0.0000   0.0000   0.0000  24.8920   0.0000   0.0000   0.0000  24.8920 " ConfE="      -5941.0329" DelE="          0.0000"
Ni    -0.02768498    0.02503634   -3.48074065       1
Ni    -0.05944461    0.05592477    3.63590598       2
Cr     3.50414437    0.12489220    0.04750893       3
Cr    -0.05859954    3.61324807    0.03760732       4
Co    -0.00371373   -3.50731908    0.06480310       5
Co    -3.51407152    0.00618440    0.00701261       6
Ni    -0.02763986    1.79520355   -1.72274806       7
Co    -0.02697351   -1.75015780   -1.74933149       8
Co     1.72754198    1.76300131    0.01243616       9
Cr     1.71452046   -1.65940383    0.00900590      10
Ni    -1.81334804    0.05337344    1.84365764      11
Ni     1.71855819    0.04949097    1.86943961      12
Cr    -1.83496197    0.02344795   -1.69023705      13
Co    -1.80179701    1.85035977    0.04461395      14
Cr    -1.75309387   -1.78592533    0.09197772      15
Cr    -0.08254647    1.86091478    1.80845222      16
Co    -0.03892107   -1.74447258    1.84567794      17
Cr     0.00000000    0.00000000    0.00000000      18
          18
Lattice="  24.8920   0.0000   0.0000   0.0000  24.8920   0.0000   0.0000   0.0000  24.8920 " ConfE="      -5940.4823" DelE="          0.5506"
Ni    -0.10770475    0.02524046   -3.43470773       1
Ni    -0.04252138    0.06354882    3.61712174       2
Cr     3.55946552    0.14087575    0.08745054       3
Cr    -0.10789838    3.68923824    0.07304845       4
Co    -0.03167901   -3.58925357    0.07808156       5
Co    -3.53310098   -0.00212434    0.01070392       6
Ni    -0.10584300    1.92919623   -1.73327579       7
Co    -0.10289262   -1.89142611   -1.79608899       8
Co     1.73463648    1.92231137    0.02079624       9
Cr     1.67188070   -1.89206748    0.09327526      10
Ni    -1.78425758    0.06004297    1.81965793      11
Ni     1.67621598    0.05604089    1.72885915      12
Cr    -1.83199247    0.03525002   -1.60724287      13
Co    -1.77075763    1.82845542    0.05363097      14
Cr    -1.54553866   -1.64766429    0.08653146      15
Cr    -0.06803747    1.82959198    1.70776794      16
Co    -0.02797334   -1.73722110    1.82637988      17
Cr     0.84753418   -0.03216529   -0.84185177      18
          18
Lattice="  24.8920   0.0000   0.0000   0.0000  24.8920   0.0000   0.0000   0.0000  24.8920 " ConfE="      -5940.8849" DelE="          0.1480"
Ni    -0.06832778    0.03120013   -3.53566871       1
Ni    -0.06038052    0.06336662    3.64224606       2
Cr     3.55554661    0.14191566    0.09922786       3
Cr    -0.07276384    3.63459714    0.05644273       4
Co    -0.01468681   -3.55650578    0.06857165       5
Co    -3.53095619    0.00336127    0.00800922       6
Ni    -0.05943127    1.81774458   -1.70297412       7
Co    -0.05322896   -1.76610226   -1.74998099       8
Co     1.68605194    1.79750305    0.05341989       9
Cr     1.59052040   -1.65776533    0.08623337      10
Ni    -1.79531518    0.06411375    1.83113737      11
Ni     1.67237281    0.06951152    1.81449933      12
Cr    -1.71696943    0.00254993   -1.59945636      13
Co    -1.77805880    1.83309982    0.06216049      14
Cr    -1.63834987   -1.71398328    0.10801456      15
Cr    -0.09531265    1.87678570    1.81263471      16
Co    -0.04902197   -1.73157433    1.83159148      17
Cr     1.58868245    0.02073906   -1.63067351      18
