          18
Lattice="  24.8920   0.0000   0.0000   0.0000  24.8920   0.0000   0.0000   0.0000  24.8920 " ConfE="      -5929.3888" DelE="          0.0000"
Cr    -0.01056526    3.50626422   -0.02514362       1
Co    -3.48258356   -0.03326382    0.00721177       2
Ni     0.04009994   -0.01548192    3.54148853       3
Co     3.59403185   -0.05921689    0.03263881       4
Cr    -0.01868387   -3.56753097    0.04792232       5
Cr    -0.11084761   -0.06558573   -3.44075339       6
Ni     0.00019028    1.76121972    1.74473580       7
Ni    -1.76291678    0.00627148    1.74995368       8
Cr     0.03948000    1.68137640   -1.70097713       9
Cr    -1.76947962    0.01521121   -1.57449779      10
Ni     1.79694934   -1.79752241    0.06116731      11
Co     0.03064890   -1.82609101    1.79690894      12
Co     1.81348016    0.01723001    1.81315531      13
Cr     1.86923599    1.73037275   -0.00749077      14
Co    -1.75726325   -1.85653067    0.02380552      15
Co     0.02294636   -1.79145656   -1.73751489      16
Co     1.80965392   -0.08485465   -1.77005877      17
Co     0.00000000    0.00000000    0.00000000      18
          18
Lattice="  24.8920   0.0000   0.0000   0.0000  24.8920   0.0000   0.0000   0.0000  24.8920 " ConfE="      -5928.7418" DelE="          0.6470"
Cr    -0.03308214    3.40791183   -0.03559465       1
Co    -3.40194060   -0.01046454   -0.00297545       2
Ni     0.06488852   -0.03219489    3.62541558       3
Co     3.59247735   -0.05054058    0.04172512       4
Cr    -0.03473256   -3.56414140    0.04724716       5
Cr     0.04998649   -0.07795419   -3.54797082       6
Ni     0.04369392    1.77185032    1.90689495       7
Ni    -1.76060899   -0.03337719    1.89337374       8
Cr     0.08791571    1.72834726   -1.87481135       9
Cr    -1.79383321   -0.08917410   -1.84687734      10
Ni     1.74942366   -1.74837564    0.07770296      11
Co     0.02589807   -1.80347303    1.82105849      12
Co     1.80308778    0.02562035    1.83137137      13
Cr     1.78263532    1.68757806   -0.01748210      14
Co    -1.71436322   -1.78984328    0.03101425      15
Co     0.01382011   -1.70865102   -1.69841948      16
Co     1.77445060   -0.04905427   -1.73619319      17
Co    -0.66034125    0.65466003   -0.08141539      18
          18
Lattice="  24.8920   0.0000   0.0000   0.0000  24.8920   0.0000   0.0000   0.0000  24.8920 " ConfE="      -5929.5504" DelE="         -0.1617"
Cr     0.01096491    3.56217180   -0.01942546       1
Co    -3.50312523   -0.06195348   -0.00540884       2
Ni     0.05118007   -0.02075380    3.56315768       3
Co     3.60183566   -0.06473462    0.03280960       4
Cr    -0.00150241   -3.61293207    0.05020229       5
Cr    -0.09218959   -0.08935387   -3.49706659       6
Ni     0.03420800    1.73668758    1.74914911       7
Ni    -1.71373252   -0.03095121    1.73381533       8
Cr     0.05813074    1.63430147   -1.69361346       9
Cr    -1.67264367   -0.09538068   -1.56840089      10
Ni     1.77150806   -1.78605356    0.06464283      11
Co     0.03203782   -1.82060743    1.78360224      12
Co     1.80197932    0.01485027    1.79261564      13
Cr     1.81267413    1.69976521   -0.00043167      14
Co    -1.73220096   -1.84060908    0.02425075      15
Co     0.03073781   -1.77613263   -1.70322831      16
Co     1.75991080   -0.07106990   -1.73021604      17
Co    -1.68501279    1.72947822   -0.03202897      18
