          18
Lattice="  24.8920   0.0000   0.0000   0.0000  24.8920   0.0000   0.0000   0.0000  24.8920 " ConfE="      -5939.8808" DelE="          0.0000"
Ni    -3.55705518   -0.06020259   -0.03891630       1
Ni    -0.07983346   -0.00898764    3.50588773       2
Cr     3.53429726   -0.04833096   -0.02153108       3
Co    -0.00891020   -0.00138929   -3.65669595       4
Ni    -0.03967497   -3.58200315   -0.07491239       5
Ni     0.00091245    3.48937500   -0.04198634       6
Ni    -1.79080435   -1.76919152   -0.00170825       7
Co    -1.78189956    1.76885560   -0.08268814       8
Co    -0.09107365   -1.74657396    1.79698322       9
Ni    -0.02972623    1.72161537    1.71911750      10
Ni    -1.78124325   -0.02807699   -1.84434797      11
Cr     1.74228157   -0.04342246    1.75570410      12
Ni     1.72952344   -0.03019381   -1.82245772      13
Ni    -0.02190881   -1.80621184   -1.83838815      14
Cr     0.01720674    1.74464493   -1.83796920      15
Ni     1.72646256   -1.81020044   -0.02980846      16
Co     1.79914680    1.70754237   -0.05531206      17
Co     0.00000000    0.00000000    0.00000000      18
          18
Lattice="  24.8920   0.0000   0.0000   0.0000  24.8920   0.0000   0.0000   0.0000  24.8920 " ConfE="      -5939.1089" DelE="          0.7718"
Ni    -3.53956122   -0.06599628   -0.04677195       1
Ni    -0.08611749   -0.01903525    3.47667422       2
Cr     3.54682101   -0.05748207   -0.00891297       3
Co    -0.01534633   -0.00091006   -3.64457955       4
Ni    -0.03257193   -3.62880542   -0.08518831       5
Ni     0.01213645    3.53541179   -0.04006312       6
Ni    -1.85165061   -1.94680107   -0.09433505       7
Co    -1.80917956    1.90829651   -0.13048270       8
Co    -0.02152041   -1.88508111    1.81727944       9
Ni     0.02474462    1.85212639    1.75278626      10
Ni    -1.74572985   -0.02407190   -1.77536056      11
Cr     1.62246766   -0.04438644    1.71365704      12
Ni     1.67078005   -0.03156310   -1.76079036      13
Ni    -0.03398787   -1.81737582   -1.81438105      14
Cr     0.00527534    1.74071263   -1.79323166      15
Ni     1.67667589   -1.79242940   -0.01300710      16
Co     1.74776135    1.68032001   -0.03274880      17
Co    -1.06318436   -0.02001369    0.94942561      18
          18
Lattice="  24.8920   0.0000   0.0000   0.0000  24.8920   0.0000   0.0000   0.0000  24.8920 " ConfE="      -5939.8651" DelE="          0.0157"
Ni    -3.58807249   -0.06106425   -0.07344738       1
Ni    -0.05208048   -0.01147023    3.54226423       2
Cr     3.57081241   -0.05833113   -0.02899572       3
Co    -0.00919467   -0.00096948   -3.67137468       4
Ni    -0.03155384   -3.60146399   -0.08276033       5
Ni     0.00114509    3.50068120   -0.04481602       6
Ni    -1.76801611   -1.78789249   -0.04218545       7
Co    -1.75530555    1.75016302   -0.09964105       8
Co    -0.01960554   -1.75127111    1.76628346       9
Ni    -0.00975987    1.68347935    1.67481559      10
Ni    -1.75664973   -0.02232113   -1.82039776      11
Cr     1.70811431   -0.05434288    1.74433868      12
Ni     1.69304505   -0.02713028   -1.79394486      13
Ni    -0.01823731   -1.80092850   -1.83448659      14
Cr     0.02103618    1.75049072   -1.84283244      15
Ni     1.70744978   -1.78177321   -0.03105909      16
Co     1.76590652    1.66792919   -0.05536237      17
Co    -1.79064992   -0.07552440    1.71510583      18
