          18
Lattice="  24.8920   0.0000   0.0000   0.0000  24.8920   0.0000   0.0000   0.0000  24.8920 " ConfE="      -5948.8926" DelE="          0.0000"
Cr    -0.04392240   -0.02851332    3.44762016       1
Co     3.42389282    0.01396218   -0.00995513       2
Ni    -0.02891414    3.48721552   -0.02079155       3
Co    -0.08071369   -3.61956270   -0.04899420       4
Co    -3.61414952   -0.02892879   -0.01669947       5
Co    -0.05838197    0.01393357   -3.57317496       6
Ni    -0.02853845   -1.82134274    1.72396555       7
Co    -0.01270112    1.66735215    1.70840302       8
Cr     1.80229786    1.70171311    0.02649008       9
Co     1.66067935   -1.75008445   -0.05840630      10
Ni    -1.83021748   -0.07637867    1.72378405      11
Ni     1.72915289   -0.00348578   -1.84214531      12
Ni    -1.81354995   -0.01459093   -1.79847741      13
Co    -1.81897386    1.73590373   -0.01293534      14
Cr    -0.04598980    1.77506034   -1.78934746      15
Co    -1.82276687   -1.83747644   -0.05880945      16
Cr    -0.01769803   -1.83872411   -1.79538370      17
Cr     0.00000000    0.00000000    0.00000000      18
          18
Lattice="  24.8920   0.0000   0.0000   0.0000  24.8920   0.0000   0.0000   0.0000  24.8920 " ConfE="      -5948.1815" DelE="          0.7111"
Cr    -0.06587302   -0.04649086    3.46659490       1
Co     3.48402658   -0.00572572   -0.04535310       2
Ni    -0.04248384    3.54464504   -0.02878151       3
Co    -0.10780487   -3.69446135   -0.06207288       4
Co    -3.61831508   -0.03166581   -0.00564322       5
Co    -0.05316471    0.01966057   -3.56080184       6
Ni    -0.06448826   -1.89362445    1.70260077       7
Co    -0.08084596    1.77872717    1.70314640       8
Cr     1.82072625    1.91705683   -0.08005039       9
Co     1.68088317   -1.89617329   -0.09412885      10
Ni    -1.74975049   -0.07673937    1.68308982      11
Ni     1.69519140   -0.00323033   -1.73382883      12
Ni    -1.81478097   -0.02225795   -1.78360377      13
Co    -1.77135406    1.71502382   -0.02772048      14
Cr    -0.06862927    1.66902042   -1.63335124      15
Co    -1.79503992   -1.83923025   -0.07767349      16
Cr    -0.03994252   -1.76166626   -1.69537712      17
Cr     1.12724041    0.01795051    0.94485615      18
          18
Lattice="  24.8920   0.0000   0.0000   0.0000  24.8920   0.0000   0.0000   0.0000  24.8920 " ConfE="      -5948.7903" DelE="          0.1023"
Cr    -0.05363266   -0.04802909    3.48751722       1
Co     3.49035780    0.00934396   -0.04416410       2
Ni    -0.05222480    3.53428689   -0.03227592       3
Co    -0.09030296   -3.65974837   -0.04955025       4
Co    -3.63445497   -0.03599650   -0.01507151       5
Co    -0.06482322    0.01053252   -3.58799577       6
Ni    -0.05266757   -1.84245302    1.70507767       7
Co    -0.03459638    1.67548209    1.66183182       8
Cr     1.67369610    1.72009805   -0.01862345       9
Co     1.63739275   -1.75470721   -0.05810519      10
Ni    -1.77841770   -0.07960140    1.69143772      11
Ni     1.66361175   -0.00231101   -1.76409786      12
Ni    -1.79724678   -0.02382425   -1.77545477      13
Co    -1.79553578    1.72611902   -0.03325682      14
Cr    -0.08686543    1.74906330   -1.75805443      15
Co    -1.81306944   -1.84560827   -0.07793312      16
Cr    -0.05802589   -1.82632022   -1.77293708      17
Cr     1.67456882   -0.04948416    1.64955815      18
