          18
Lattice="  24.8920   0.0000   0.0000   0.0000  24.8920   0.0000   0.0000   0.0000  24.8920 " ConfE="      -5930.1208" DelE="          0.0000"
Ni    -0.02537732   -0.01573115   -3.51720662       1
Cr     3.47433155    0.00460846    0.06703006       2
Cr     0.00016852    0.04376616    3.58577291       3
Co    -3.58105495    0.01615751    0.03961967       4
Co    -0.02448754   -3.55573297   -0.00053909       5
Ni    -0.01302452    3.53737640    0.02036610       6
Ni    -0.00405276   -1.74449629   -1.75385489       7
Co    -0.04889763    1.78244651   -1.75405388       8
Cr     1.73833144   -1.75431634    0.01251207       9
Co     1.78984533    1.69923317   -0.01535386      10
Ni    -1.84998029    0.01345009   -1.73195172      11
Ni     1.75532590   -0.01686520    1.82658108      12
Cr    -1.79216521   -0.05068949    1.75932851      13
Co    -1.80457742   -1.78321488    0.05343249      14
Cr    -1.82924466    1.77065964    0.03850339      15
Co    -0.02369319   -1.79483851    1.80579132      16
Ni     0.00265062    1.76826126    1.78562881      17
Ni     0.00000000    0.00000000    0.00000000      18
          18
Lattice="  24.8920   0.0000   0.0000   0.0000  24.8920   0.0000   0.0000   0.0000  24.8920 " ConfE="      -5929.4133" DelE="          0.7075"
Ni    -0.03894286   -0.02683368   -3.51052089       1
Cr     3.45065290   -0.00157860    0.03558188       2
Cr     0.02801018    0.05855033    3.59790434       3
Co    -3.58858242    0.01324902    0.02388853       4
Co    -0.02214260   -3.59896075    0.01070585       5
Ni    -0.02348607    3.59114608    0.03976307       6
Ni    -0.06464558   -1.89005261   -1.79822714       7
Co    -0.08332583    1.88256797   -1.75515680       8
Cr     1.75426208   -1.96651153    0.08401240       9
Co     1.83575966    1.91852303    0.06381194      10
Ni    -1.76721122   -0.00500365   -1.69368612      11
Ni     1.74284767   -0.01694830    1.75206557      12
Cr    -1.69907213   -0.05946271    1.65626815      13
Co    -1.75881389   -1.75809397    0.05810620      14
Cr    -1.77650585    1.74105020    0.03345940      15
Co    -0.00589481   -1.77023764    1.77007499      16
Ni     0.01257186    1.76450432    1.76340041      17
Ni     0.76518544   -0.03904449   -0.64859829      18
          18
Lattice="  24.8920   0.0000   0.0000   0.0000  24.8920   0.0000   0.0000   0.0000  24.8920 " ConfE="      -5930.2382" DelE="         -0.1175"
Ni    -0.03980987   -0.01428293   -3.53202778       1
Cr     3.55138283    0.00364098    0.10143167       2
Cr     0.01787910    0.06360205    3.60264312       3
Co    -3.60831358    0.01392381    0.03172485       4
Co    -0.03610645   -3.58974539    0.00811782       5
Ni    -0.01896114    3.56495808    0.02689208       6
Ni    -0.03806103   -1.74748724   -1.70358668       7
Co    -0.07601666    1.77323151   -1.70015821       8
Cr     1.69807107   -1.77136213    0.05826357       9
Co     1.76385401    1.73641103    0.02337195      10
Ni    -1.81632731    0.00980021   -1.70116691      11
Ni     1.74233984   -0.01888408    1.76938804      12
Cr    -1.75002735   -0.05804126    1.68650061      13
Co    -1.77735205   -1.73826938    0.07605800      14
Cr    -1.80259575    1.73896699    0.03087388      15
Co    -0.01671980   -1.76186371    1.77696493      16
Ni    -0.01355729    1.72910816    1.74210449      17
Ni     1.73197768   -0.00622046   -1.69327815      18
