          18
Lattice="  24.8920   0.0000   0.0000   0.0000  24.8920   0.0000   0.0000   0.0000  24.8920 " ConfE="      -5946.4240" DelE="          0.0000"
Ni    -0.03907049    3.45513575   -0.02617000       1
Ni    -0.03717272   -0.02622568    3.58306494       2
Ni    -0.01848909   -3.59812686    0.03035754       3
Co    -0.05036120   -0.01122959   -3.49328230       4
Co     3.52564629   -0.05306295    0.03711697       5
Co    -3.54562333   -0.11260253   -0.00017758       6
Ni     1.73772947    1.72123327    0.00723270       7
Ni    -1.73707524    0.00046915   -1.75503880       8
Co    -1.79989365    1.72665510   -0.00481246       9
Cr     1.79795976   -0.02628842   -1.74246327      10
Co    -0.01855105    1.74930094    1.79947130      11
Cr     1.70258704   -0.11037022    1.78845872      12
Cr    -1.72995763   -1.79308964    0.02605868      13
Co    -1.78228065   -0.06642540    1.76656591      14
Co     1.75593804   -1.83645774    0.01808238      15
Co    -0.00869779   -1.84558957   -1.76062680      16
Co    -0.00007318   -1.81939209    1.80322846      17
Ni     0.00000000    0.00000000    0.00000000      18
          18
Lattice="  24.8920   0.0000   0.0000   0.0000  24.8920   0.0000   0.0000   0.0000  24.8920 " ConfE="      -5945.0185" DelE="          1.4054"
Ni    -0.03619577    3.40686029   -0.02790341       1
Ni    -0.04832064   -0.04350803    3.50923293       2
Ni    -0.01544230   -3.54225748    0.06919975       3
Co    -0.05930729   -0.01338719   -3.43618787       4
Co     3.62473781   -0.05778073    0.05291824       5
Co    -3.65703455   -0.10612839    0.02096891       6
Ni     1.90624600    1.73556560    0.08596847       7
Ni    -1.91726791   -0.07995756   -1.76246260       8
Co    -1.96181284    1.73602198    0.04968995       9
Cr     1.92968500   -0.12392732   -1.70761408      10
Co    -0.04219103    1.63325105    1.68935759      11
Cr     1.85200362   -0.06127313    1.75261908      12
Cr    -1.85055426   -1.81190428   -0.01669648      13
Co    -1.96941930   -0.02223332    1.81309367      14
Co     1.89883127   -1.88269740   -0.02052900      15
Co    -0.01150275   -1.76782387   -1.67001943      16
Co    -0.01726820   -0.96172073    0.94518783      17
Ni    -0.00038745    0.93052535   -0.94024546      18
          18
Lattice="  24.8920   0.0000   0.0000   0.0000  24.8920   0.0000   0.0000   0.0000  24.8920 " ConfE="      -5946.2130" DelE="          0.2110"
Ni    -0.03930093    3.48217390    0.01095471       1
Ni    -0.04035162   -0.05987833    3.54650617       2
Ni    -0.01339177   -3.56939921    0.07012340       3
Co    -0.04529985   -0.06131331   -3.53164863       4
Co     3.53287429   -0.06495331    0.05128107       5
Co    -3.55654421   -0.12271578    0.00997222       6
Ni     1.74582457    1.70180211    0.04551540       7
Ni    -1.75333951   -0.05186422   -1.74362110       8
Co    -1.80513417    1.70741970    0.02030092       9
Cr     1.80195418   -0.07285346   -1.71446321      10
Co    -0.02773304    1.74985933    1.78336083      11
Cr     1.63666082   -0.17277235    1.76494398      12
Cr    -1.67336966   -1.77392074    0.10934433      13
Co    -1.76419973   -0.11869317    1.75096367      14
Co     1.73869732   -1.83595080    0.07503665      15
Co     0.00243045   -1.83746700   -1.76256539      16
Co    -0.00541566   -0.09660638    0.07939435      17
Ni    -0.01034223    1.71932040   -1.75361100      18
