          18
Lattice="  24.8920   0.0000   0.0000   0.0000  24.8920   0.0000   0.0000   0.0000  24.8920 " ConfE="      -5936.9595" DelE="          0.0000"
Co    -3.53579532    0.00573869    0.04462487       1
Cr    -0.02521275   -0.14194948   -3.45237362       2
Ni     3.59955369   -0.00624584    0.07129218       3
Cr     0.01528076   -0.01975655    3.59544605       4
Co     0.04483037    3.54659483    0.04294866       5
Cr     0.04279898   -3.50694202    0.01151806       6
Ni    -1.77889807    1.72431352   -0.00833810       7
Ni    -1.74325470   -1.74139537   -0.00496756       8
Co     0.01500773    1.74462425   -1.77235122       9
Co     0.01564374   -1.72777136   -1.78656886      10
Co    -1.74791706   -0.02546878    1.85559246      11
Ni     1.83918753   -0.00108844   -1.73627159      12
Cr     1.79538033   -0.02634418    1.81780249      13
Ni     0.02266602    1.75133526    1.80452250      14
Co     0.01539471   -1.76123552    1.82858836      15
Co     1.80263311    1.79263543    0.04940041      16
Co     1.80647926   -1.75601591    0.03428951      17
Ni     0.00000000    0.00000000    0.00000000      18
          18
Lattice="  24.8920   0.0000   0.0000   0.0000  24.8920   0.0000   0.0000   0.0000  24.8920 " ConfE="      -5936.4356" DelE="          0.5239"
Co    -3.48510794    0.00240080    0.02377682       1
Cr    -0.03791592   -0.12515836   -3.39667632       2
Ni     3.60139680   -0.00095629    0.06242730       3
Cr     0.00009131   -0.01291450    3.60564454       4
Co     0.04242514    3.59230633    0.06327107       5
Cr     0.05031189   -3.55853086    0.02206666       6
Ni    -1.80518289    1.85629802    0.02415831       7
Ni    -1.76996473   -1.88665253    0.04331991       8
Co     0.10153152    1.94979679   -1.80711640       9
Co     0.10478627   -1.96775660   -1.79329878      10
Co    -1.71630202   -0.02997711    1.78261408      11
Ni     1.78008707    0.00525102   -1.71770042      12
Cr     1.72241860   -0.02647201    1.75173462      13
Ni     0.01008293    1.74180726    1.78080928      14
Co     0.02781645   -1.72137660    1.79003491      15
Co     1.77210519    1.77611381    0.04985511      16
Co     1.76799322   -1.71039225    0.04295546      17
Ni    -0.58764982   -0.01126366   -0.71115840      18
          18
Lattice="  24.8920   0.0000   0.0000   0.0000  24.8920   0.0000   0.0000   0.0000  24.8920 " ConfE="      -5937.0747" DelE="         -0.1152"
Co    -3.56967561   -0.00246877    0.08029877       1
Cr     0.02619398   -0.13902636   -3.50343358       2
Ni     3.61320176   -0.00437743    0.06945522       3
Cr     0.01077684   -0.01630200    3.62036348       4
Co     0.04545367    3.56425764    0.05551460       5
Cr     0.05473367   -3.53869183    0.03004294       6
Ni    -1.75349952    1.72703225    0.03717187       7
Ni    -1.70626618   -1.75180211    0.03883979       8
Co     0.03294697    1.75318659   -1.74264911       9
Co     0.05404343   -1.74858833   -1.74394586      10
Co    -1.73332696   -0.03050902    1.83154284      11
Ni     1.79040127    0.00724740   -1.70571484      12
Cr     1.76436515   -0.03084414    1.78673831      13
Ni     0.02507828    1.70426187    1.78207473      14
Co     0.04500505   -1.70086495    1.80945415      15
Co     1.78256349    1.76843559    0.05839661      16
Co     1.77539618   -1.70613528    0.05645332      17
Ni    -1.72245965   -0.00989063   -1.69981861      18
