          18
Lattice="  24.8920   0.0000   0.0000   0.0000  24.8920   0.0000   0.0000   0.0000  24.8920 " ConfE="      -5949.5944" DelE="          0.0000"
Ni    -0.01732379    3.56073605    0.01514744       1
Ni    -0.00903776    0.13039193    3.58001063       2
Co     0.00094259   -3.54193989    0.07295241       3
Ni     0.00077705    0.01491894   -3.52321097       4
Cr    -3.49740832   -0.02654680    0.04140988       5
Ni     3.52304893    0.00451590    0.05905509       6
Ni    -1.74219313    1.76393627    0.05760576       7
Ni     1.70463686    1.76619072    0.04777627       8
Co    -1.76696016    0.05947580    1.86636342       9
Ni     1.71689513    0.08125061    1.82330644      10
Co    -0.00887991    1.79826385   -1.76315789      11
Ni    -0.02293592   -1.74183779    1.83493922      12
Co    -0.00119744   -1.77687149   -1.73505888      13
Co    -1.77257739   -0.01531525   -1.75978168      14
Cr     1.65638572   -0.04052316   -1.69771403      15
Ni    -1.76515921   -1.76516442    0.04680754      16
Cr     1.70243857   -1.75886897    0.04807777      17
Co     0.00000000    0.00000000    0.00000000      18
          18
Lattice="  24.8920   0.0000   0.0000   0.0000  24.8920   0.0000   0.0000   0.0000  24.8920 " ConfE="      -5948.4590" DelE="          1.1354"
Ni    -0.01109453    3.52257197    0.01371449       1
Ni    -0.01671922    0.10464015    3.54673574       2
Co     0.00072934   -3.53352112    0.08389035       3
Ni     0.00006602    0.01713101   -3.52159216       4
Cr    -3.58723110   -0.03080396    0.02572316       5
Ni     3.57282559   -0.00279788    0.04561746       6
Ni    -1.89832817    1.80397204   -0.01684680       7
Ni     1.83847706    1.77584552    0.00991687       8
Co    -1.95077825   -0.03569602    1.91989130       9
Ni     1.88871817    0.00708094    1.86267671      10
Co     0.00290136    1.71677395   -1.66679432      11
Ni    -0.01716717   -1.68659788    1.79705076      12
Co     0.02280302   -1.71430316   -1.67026213      13
Co    -1.77042529   -0.00456213   -1.73579359      14
Cr     1.63606970   -0.01707652   -1.65725115      15
Ni    -1.75080451   -1.69992491    0.05511741      16
Cr     1.69587126   -1.71883891    0.04579019      17
Co    -0.06504024    0.82951531    0.95907507      18
          18
Lattice="  24.8920   0.0000   0.0000   0.0000  24.8920   0.0000   0.0000   0.0000  24.8920 " ConfE="      -5949.5276" DelE="          0.0667"
Ni    -0.01782387    3.57608314    0.00684530       1
Ni    -0.00894339    0.05107903    3.62378097       2
Co    -0.00044194   -3.55940946    0.07537309       3
Ni    -0.00050099    0.00980385   -3.53333782       4
Cr    -3.55028453   -0.03441520    0.04119701       5
Ni     3.54012177   -0.01171558    0.04641702       6
Ni    -1.74198460    1.73241587    0.04187195       7
Ni     1.67978697    1.70604384    0.02713321       8
Co    -1.79010400    0.02111342    1.86443761       9
Ni     1.71659778    0.01364972    1.78222397      10
Co    -0.00569009    1.76159369   -1.73475411      11
Ni    -0.02553476   -1.72494507    1.80071822      12
Co     0.03122847   -1.72332144   -1.67550679      13
Co    -1.74807130   -0.01558664   -1.73482344      14
Cr     1.65093647   -0.05263475   -1.69908404      15
Ni    -1.74915213   -1.73164696    0.04645778      16
Cr     1.69657300   -1.76678247    0.02087961      17
Co    -0.04373999    1.77861630    1.85191338      18
