          18
Lattice="  24.8920   0.0000   0.0000   0.0000  24.8920   0.0000   0.0000   0.0000  24.8920 " ConfE="      -5945.0859" DelE="          0.0000"
Cr     0.00493124   -3.47503867    0.05227446       1
Ni     3.56083586    0.06513988    0.07131019       2
Co     0.09189632    0.09194520   -3.42914848       3
Ni     0.04174194    0.08685699    3.63034346       4
Co    -3.48803001    0.13245932    0.06557357       5
Cr     0.01959233    3.78090792    0.15881403       6
Ni     1.75523164   -1.70333534    0.05083146       7
Ni    -1.71762514    0.04760817   -1.72007712       8
Ni     0.01556189   -1.71197218    1.88420514       9
Ni     1.79293759    0.08082272    1.83544567      10
Cr     1.75837486    0.03456164   -1.74082867      11
Co    -1.66182736   -1.65044637    0.04311660      12
Ni    -1.74402246    0.09591154    1.84126144      13
Ni     0.00310331    1.86206870    1.80597389      14
Ni     1.75547259    1.85344277    0.05341924      15
Cr    -0.01451777    1.87249376   -1.71474426      16
Cr    -1.74553195    1.87416672    0.01236419      17
Cr     0.00000000    0.00000000    0.00000000      18
          18
Lattice="  24.8920   0.0000   0.0000   0.0000  24.8920   0.0000   0.0000   0.0000  24.8920 " ConfE="      -5944.4213" DelE="          0.6646"
Cr     0.03089365   -3.48068769    0.05085944       1
Ni     3.60106385    0.07606645    0.08818059       2
Co     0.07042131    0.09931982   -3.40789885       3
Ni     0.04045844    0.07389596    3.62766366       4
Co    -3.56182806    0.16852250    0.08556667       5
Cr     0.01423260    3.73205240    0.14154385       6
Ni     1.87270034   -1.71807994    0.11925561       7
Ni    -1.90217873    0.11399941   -1.76174144       8
Ni     0.01118726   -1.68960138    1.79658383       9
Ni     1.78716057    0.08031895    1.82527003      10
Cr     1.86961324    0.05418720   -1.72523712      11
Co    -1.81442614   -1.65638605    0.07719571      12
Ni    -1.73710580    0.09069687    1.80956008      13
Ni     0.00134603    1.83582193    1.78514847      14
Ni     1.72879359    1.80650086    0.03988943      15
Cr    -0.02087305    1.81823981   -1.71249034      16
Cr    -1.66477746    1.78921191   -0.00747741      17
Cr    -0.02090750   -0.82591934   -0.88044489      18
          18
Lattice="  24.8920   0.0000   0.0000   0.0000  24.8920   0.0000   0.0000   0.0000  24.8920 " ConfE="      -5945.2606" DelE="         -0.1747"
Cr    -0.00002059   -3.51712000    0.06516020       1
Ni     3.58747916    0.07895660    0.08942320       2
Co     0.06960016    0.10094890   -3.48332520       3
Ni     0.03843949    0.08697889    3.63381437       4
Co    -3.52192855    0.14485768    0.07150385       5
Cr     0.01785342    3.77339276    0.15600706       6
Ni     1.75368527   -1.66736973    0.07884062       7
Ni    -1.71199080    0.07610843   -1.68105260       8
Ni     0.00400338   -1.69618975    1.83753317       9
Ni     1.78383921    0.09527907    1.83612934      10
Cr     1.76722221    0.07499238   -1.69054213      11
Co    -1.66540123   -1.66183706    0.02443886      12
Ni    -1.73731977    0.10552072    1.81114898      13
Ni     0.00025961    1.86222987    1.79802252      14
Ni     1.74643410    1.84906900    0.06352544      15
Cr    -0.00232850    1.80551376   -1.68289021      16
Cr    -1.70892712    1.88414528    0.02035424      17
Cr     0.00743382   -1.67237282   -1.66950870      18
