          18
Lattice="  24.8920   0.0000   0.0000   0.0000  24.8920   0.0000   0.0000   0.0000  24.8920 " ConfE="      -5937.8374" DelE="          0.0000"
Cr     0.01577378    0.09066663    3.41881392       1
Co     0.02734395   -3.47228564   -0.05807976       2
Ni     0.04452399    0.06050825   -3.63641625       3
Co     0.04406498    3.68133844   -0.09092253       4
Cr    -3.50428738    0.00519184   -0.10848963       5
Co     3.62392683    0.01902881   -0.14631704       6
Cr    -1.67413444    0.10452404    1.63660754       7
Ni     1.78479866    0.09407786    1.65536978       8
Cr    -1.57763334   -1.78110582    0.03436555       9
Co     1.82059182   -1.71447190   -0.11692406      10
Cr     0.03996752    2.01463599    1.62032540      11
Ni     0.06278485   -1.72613666   -1.88148542      12
Co     0.05790113    1.84135379   -1.84298247      13
Co    -1.70058775    1.83223848   -0.06832883      14
Ni     1.82212664    1.86174477   -0.09238953      15
Ni    -1.71929796    0.04276031   -1.82111779      16
Cr     1.77798112    0.10490757   -1.80777101      17
Co     0.00000000    0.00000000    0.00000000      18
          18
Lattice="  24.8920   0.0000   0.0000   0.0000  24.8920   0.0000   0.0000   0.0000  24.8920 " ConfE="      -5937.4502" DelE="          0.3873"
Cr     0.04845083    0.00817145    3.29245824       1
Co     0.01738308   -3.41364388   -0.03328829       2
Ni     0.05221856    0.05366126   -3.63395107       3
Co     0.04816745    3.67072883   -0.07180673       4
Cr    -3.55574597    0.01560758   -0.11794759       5
Co     3.69416872    0.02635313   -0.16016745       6
Cr    -1.84149346    0.15025279    1.70739159       7
Ni     1.93203272    0.10509315    1.63516543       8
Cr    -1.82430531   -1.82599703   -0.11086934       9
Co     1.94713622   -1.73780887   -0.15228177      10
Cr     0.03280841    1.87849883    1.61295173      11
Ni     0.06139312   -1.70619611   -1.82584778      12
Co     0.07398988    1.81229165   -1.81506871      13
Co    -1.64543678    1.74464253   -0.02677101      14
Ni     1.82914840    1.85687049   -0.07400546      15
Ni    -1.69320998    0.04011678   -1.78607840      16
Cr     1.72834984    0.10355599   -1.73466109      17
Co    -0.07380892   -0.64752743    0.60005861      18
          18
Lattice="  24.8920   0.0000   0.0000   0.0000  24.8920   0.0000   0.0000   0.0000  24.8920 " ConfE="      -5938.1172" DelE="         -0.2797"
Cr     0.00314088    0.11501659    3.47821564       1
Co     0.02669280   -3.50515327   -0.10454105       2
Ni     0.04998085    0.05945497   -3.66213358       3
Co     0.04811693    3.68804439   -0.08710975       4
Cr    -3.53544213    0.00874041   -0.12059188       5
Co     3.64296680    0.02776422   -0.15861318       6
Cr    -1.66190906    0.11589000    1.60578650       7
Ni     1.76074968    0.12776429    1.61229827       8
Cr    -1.65743264   -1.74392948   -0.07642613       9
Co     1.81156459   -1.66928904   -0.15896547      10
Cr     0.02018528    1.95745708    1.61330999      11
Ni     0.06516813   -1.70628119   -1.86761400      12
Co     0.08151179    1.83351898   -1.85395324      13
Co    -1.64221673    1.77509519   -0.05002478      14
Ni     1.80976806    1.86090757   -0.10084779      15
Ni    -1.67901540    0.05252814   -1.80184452      16
Cr     1.75289535    0.12203324   -1.80134500      17
Co     0.01788400   -1.61126030    1.59984826      18
