          18
Lattice="  24.8920   0.0000   0.0000   0.0000  24.8920   0.0000   0.0000   0.0000  24.8920 " ConfE="      -5944.0743" DelE="          0.0000"
Ni     0.02978814    3.56204829   -0.02521216       1
Ni     0.02049803   -3.56082954    0.00317262       2
Co     0.05819159    0.05281816    3.47665660       3
Cr     3.53516636   -0.02996561   -0.00696981       4
Co    -3.49917312    0.02106974    0.01030900       5
Co    -0.00350421   -0.02012096   -3.57000485       6
Ni     1.74810969    1.78958755    0.02770414       7
Cr    -1.69848140    1.74982672    0.05701809       8
Ni     1.77606972    0.03277086   -1.79542058       9
Ni    -1.74742696    0.00384681   -1.77310280      10
Cr     1.75647618    0.04398910    1.74729212      11
Cr    -1.70530233    0.05817539    1.80892094      12
Ni     0.02733659   -1.79541783    1.77002228      13
Co     0.00056698    1.78595337   -1.78320486      14
Co     0.01328874   -1.77505504   -1.80063079      15
Co     1.79253801   -1.75537777   -0.03434105      16
Cr    -1.74827415   -1.77533014    0.03331069      17
Cr     0.00000000    0.00000000    0.00000000      18
          18
Lattice="  24.8920   0.0000   0.0000   0.0000  24.8920   0.0000   0.0000   0.0000  24.8920 " ConfE="      -5943.4136" DelE="          0.6607"
Ni     0.04040344    3.53493592   -0.02467389       1
Ni     0.02760552   -3.56551091    0.01642801       2
Co     0.05901878    0.05305673    3.44833788       3
Cr     3.63114439   -0.01225616   -0.06346816       4
Co    -3.53400344    0.01230783    0.00727655       5
Co    -0.00242509   -0.01688445   -3.57852989       6
Ni     1.87156777    1.81567217   -0.02486524       7
Cr    -1.81585780    1.81466102   -0.00633693       8
Ni     1.77220507    0.04518317   -1.76764245       9
Ni    -1.71385590    0.02245658   -1.72099967      10
Cr     1.96304685   -0.06623845    1.73826508      11
Cr    -1.90707594   -0.04727549    1.88427169      12
Ni     0.02726855   -1.75499693    1.76063040      13
Co     0.00543999    1.76018515   -1.72385314      14
Co     0.01541969   -1.72631966   -1.74252779      15
Co     1.75605087   -1.67234344   -0.00852874      16
Cr    -1.67406689   -1.68682780    0.04017041      17
Cr    -0.00723486    0.64290109    0.74615920      18
          18
Lattice="  24.8920   0.0000   0.0000   0.0000  24.8920   0.0000   0.0000   0.0000  24.8920 " ConfE="      -5944.0892" DelE="         -0.0148"
Ni     0.02849864    3.58726158   -0.04046314       1
Ni     0.02343971   -3.56275799    0.00658893       2
Co     0.04984085    0.01356311    3.55737187       3
Cr     3.55467784   -0.03424585   -0.03021552       4
Co    -3.53130262   -0.00024482   -0.00491861       5
Co    -0.00521677   -0.02373942   -3.60201059       6
Ni     1.76522617    1.75873177   -0.02780181       7
Cr    -1.66960341    1.65050182   -0.01550286       8
Ni     1.75709820    0.02387031   -1.79308003       9
Ni    -1.71795337   -0.01826853   -1.76688686      10
Cr     1.78663095    0.00556822    1.70555046      11
Cr    -1.73371240    0.00071548    1.78393649      12
Ni     0.02687694   -1.73209711    1.73982754      13
Co    -0.01657467    1.76880899   -1.73811412      14
Co     0.01678781   -1.76756257   -1.79483209      15
Co     1.76829193   -1.71150611   -0.03968318      16
Cr    -1.69356930   -1.70993913    0.01076939      17
Cr     0.01707307    1.73036296    1.70209150      18
