          18
Lattice="  24.8920   0.0000   0.0000   0.0000  24.8920   0.0000   0.0000   0.0000  24.8920 " ConfE="      -5943.6442" DelE="          0.0000"
Ni     0.05661712    3.58115744   -0.00655927       1
Co     0.05306601    0.03661691   -3.59246232       2
Cr     0.11888460   -3.56279695   -0.04654584       3
Ni     3.56494543    0.02010397    0.01269112       4
Cr    -3.42030703   -0.06821895   -0.04291497       5
Co     0.03205049    0.03543035    3.51679518       6
Ni     1.74686165    0.00226884   -1.79921547       7
Ni     1.75640920   -1.74799458   -0.05777907       8
Ni    -1.66783515   -0.01402353   -1.80134382       9
Ni     1.78681231    1.79305490   -0.01161245      10
Ni    -1.70953743    1.80444841   -0.02731932      11
Co    -1.65747468   -1.77440502   -0.05530717      12
Ni     1.78639011    0.02696038    1.75007533      13
Co     0.00040331    1.82997006   -1.83843342      14
Co     0.00316760    1.80152185    1.79378181      15
Co     0.06090842   -1.77280196    1.75549743      16
Co    -1.73861617   -0.00566767    1.70496145      17
Cr     0.00000000    0.00000000    0.00000000      18
          18
Lattice="  24.8920   0.0000   0.0000   0.0000  24.8920   0.0000   0.0000   0.0000  24.8920 " ConfE="      -5942.6789" DelE="          0.9653"
Ni     0.05605873    3.56814749   -0.01723467       1
Co     0.07430293   -0.02276389   -3.49671175       2
Cr     0.11687302   -3.52386476   -0.03755614       3
Ni     3.61478786    0.04143055    0.02351928       4
Cr    -3.53625886   -0.04314853   -0.02436211       5
Co     0.04152505    0.01804039    3.52346276       6
Ni     1.94439639    0.04037304   -1.84310493       7
Ni     1.95870882   -1.78929451    0.03584906       8
Ni    -1.83233195    0.01864210   -1.82347876       9
Ni     1.75614129    1.74496911   -0.02747352      10
Ni    -1.65643780    1.71264225   -0.04070421      11
Co    -1.78831579   -1.78239618   -0.02739065      12
Ni     1.76621017    0.02415351    1.71452960      13
Co     0.01154714    1.72991108   -1.83392194      14
Co    -0.00203452    1.76058686    1.78349292      15
Co     0.06352186   -1.74960353    1.65771543      16
Co    -1.71885919   -0.02836367    1.66941716      17
Cr     0.08670174   -0.81039501   -0.87024095      18
          18
Lattice="  24.8920   0.0000   0.0000   0.0000  24.8920   0.0000   0.0000   0.0000  24.8920 " ConfE="      -5943.9162" DelE="         -0.2720"
Ni     0.05751772    3.59798623   -0.00088457       1
Co     0.05596937    0.03245171   -3.61071694       2
Cr     0.13975866   -3.58917312   -0.02439061       3
Ni     3.58800059    0.03992142    0.02609787       4
Cr    -3.47162355   -0.05291785   -0.02991718       5
Co     0.03559044    0.03099770    3.54773357       6
Ni     1.76573184    0.03475432   -1.77687684       7
Ni     1.79047470   -1.71708309   -0.02110840       8
Ni    -1.65819747    0.00322906   -1.74882819       9
Ni     1.76626813    1.79412038    0.00325134      10
Ni    -1.67118373    1.77428071   -0.01613216      11
Co    -1.67089633   -1.76414677   -0.03059765      12
Ni     1.75446706    0.04048256    1.73882430      13
Co    -0.00322549    1.80694345   -1.84898567      14
Co    -0.00532459    1.79260515    1.80845531      15
Co     0.04897085   -1.75269082    1.69521218      16
Co    -1.72829798    0.00122611    1.69084784      17
Cr     0.09428893   -1.74750644   -1.78957616      18
