          18
Lattice="  24.8920   0.0000   0.0000   0.0000  24.8920   0.0000   0.0000   0.0000  24.8920 " ConfE="      -5950.0064" DelE="          0.0000"
Ni     0.04399934   -3.41830813   -0.00251554       1
Co    -3.47160134    0.04065392    0.02674534       2
Co     0.07670828    3.64379318   -0.04589564       3
Ni     3.62634206    0.04952460   -0.00002754       4
Cr     0.00683167   -0.00893557   -3.56539719       5
Ni     0.08834309    0.04918665    3.52884870       6
Co     0.05363717   -1.72279743   -1.80973762       7
Cr     0.04024034   -1.69922684    1.78196136       8
Ni    -1.72565394   -0.00303496   -1.75155230       9
Co    -1.68654519    0.00750080    1.73816393      10
Ni     1.84795199   -1.70147897   -0.00739590      11
Cr    -1.61708846    1.80100275   -0.02619309      12
Co     1.76829110    1.85574294   -0.05652771      13
Ni     1.81356567    0.04566697   -1.79077725      14
Ni     1.84448387    0.06257050    1.74970686      15
Co     0.03815359    1.82322460   -1.79959742      16
Co     0.04657712    1.83846752    1.75633381      17
Co     0.00000000    0.00000000    0.00000000      18
          18
Lattice="  24.8920   0.0000   0.0000   0.0000  24.8920   0.0000   0.0000   0.0000  24.8920 " ConfE="      -5948.9527" DelE="          1.0537"
Ni     0.04738801   -3.39326116   -0.01535273       1
Co    -3.37660479    0.02306514    0.03029955       2
Co     0.12276725    3.52942450   -0.05617922       3
Ni     3.55935660    0.06503151    0.01163359       4
Cr    -0.00040659    0.00226332   -3.69731204       5
Ni     0.08021254    0.05664975    3.61921075       6
Co     0.09552706   -1.72455141   -1.95347438       7
Cr     0.10462363   -1.71032948    1.91902389       8
Ni    -1.69933686    0.05471956   -1.90551725       9
Co    -1.74832143    0.10329925    1.95352279      10
Ni     1.76449171   -1.61823261   -0.01296624      11
Cr    -1.55648274    1.69273254   -0.01724798      12
Co     0.91659642    1.05607683   -0.01196612      13
Ni     1.81809376    0.01075696   -1.92566148      14
Ni     1.85020936    0.02364183    1.88843231      15
Co     0.02208082    1.86281339   -1.98530055      16
Co     0.02440072    1.88740657    1.94523926      17
Co    -0.83306819   -0.88690915    0.08230022      18
          18
Lattice="  24.8920   0.0000   0.0000   0.0000  24.8920   0.0000   0.0000   0.0000  24.8920 " ConfE="      -5950.0513" DelE="         -0.0449"
Ni     0.07257682   -3.45904736   -0.00373355       1
Co    -3.48736228    0.06206373    0.01508328       2
Co     0.13486510    3.59391978   -0.05446610       3
Ni     3.60946613    0.05851426    0.00519889       4
Cr     0.03208839    0.01805926   -3.56677514       5
Ni     0.08948788    0.05572566    3.52788228       6
Co     0.07124034   -1.70515520   -1.81446947       7
Cr     0.04969205   -1.70312688    1.79037277       8
Ni    -1.71385746    0.04102678   -1.79307219       9
Co    -1.69591210    0.06019803    1.77243626      10
Ni     1.82897611   -1.70992822   -0.00594381      11
Cr    -1.63755508    1.77093153   -0.02609859      12
Co     0.05514447    0.09210680   -0.01256205      13
Ni     1.81875738    0.07029387   -1.77211032      14
Ni     1.83553646    0.08105638    1.73207496      15
Co     0.09508542    1.84798553   -1.77442259      16
Co     0.06854768    1.84909951    1.74136100      17
Co    -1.67953248   -1.67518284    0.01093918      18
