          18
Lattice="  24.8920   0.0000   0.0000   0.0000  24.8920   0.0000   0.0000   0.0000  24.8920 " ConfE="      -5942.0472" DelE="          0.0000"
Co    -0.06058252   -3.44915012   -0.04511659       1
Cr     0.01270893   -0.05818272    3.48825623       2
Ni    -3.49588662    0.04685165    0.00252639       3
Cr     3.56524592   -0.00666935   -0.02122729       4
Co     0.01704958    0.04877518   -3.60292479       5
Cr     0.02518586    3.57394049    0.02412530       6
Ni     1.75599419   -1.76602995   -0.02474823       7
Cr    -1.68883321   -1.82426527   -0.04907155       8
Cr    -1.69704284    0.04246619    1.77334986       9
Co     1.75311522   -0.00205846    1.76341170      10
Ni    -1.76379771    0.04048334   -1.78073132      11
Ni     1.79080442    0.01501422   -1.80844207      12
Ni     1.78896852    1.81357603   -0.02535135      13
Co     0.03336679   -1.74847514   -1.86594119      14
Co     0.06797441    1.83466785    1.78942914      15
Cr    -1.72237347    1.83763903    0.03002927      16
Cr     0.02855269    1.79629434   -1.83703967      17
Ni     0.00000000    0.00000000    0.00000000      18
          18
Lattice="  24.8920   0.0000   0.0000   0.0000  24.8920   0.0000   0.0000   0.0000  24.8920 " ConfE="      -5941.5023" DelE="          0.5449"
Co    -0.05441541   -3.42404624   -0.04001495       1
Cr    -0.02628475   -0.09362705    3.42339142       2
Ni    -3.51745244    0.05321601   -0.01251326       3
Cr     3.63878580    0.00773304   -0.04291019       4
Co     0.02183056    0.03957067   -3.61095161       5
Cr     0.03954610    3.59896802    0.02714240       6
Ni     1.84877817   -1.76471390   -0.04704815       7
Cr    -1.85617939   -1.93453016   -0.14782452       8
Cr    -1.90058204    0.16999551    1.84446942       9
Co     1.87830731    0.04343164    1.75800057      10
Ni    -1.73113331    0.01600752   -1.73245059      11
Ni     1.79856598    0.01403493   -1.79303834      12
Ni     1.79807579    1.80535383   -0.02575301      13
Co     0.03920563   -1.72884858   -1.81978494      14
Co     0.06060564    1.78618093    1.75801201      15
Cr    -1.63275048    1.77623043    0.03430487      16
Cr     0.02775204    1.72530099   -1.75483657      17
Ni    -0.14529374   -0.61744576    0.63621810      18
          18
Lattice="  24.8920   0.0000   0.0000   0.0000  24.8920   0.0000   0.0000   0.0000  24.8920 " ConfE="      -5941.5643" DelE="          0.4829"
Co    -0.05032406   -3.43383743   -0.02727237       1
Cr    -0.01907843   -0.07879632    3.46242404       2
Ni    -3.53381218    0.05635279   -0.01767956       3
Cr     3.67426098    0.01294563   -0.05007391       4
Co     0.02166484    0.03702305   -3.60255924       5
Cr     0.03987758    3.58129888    0.03440831       6
Ni     1.87629614   -1.76775608   -0.04790533       7
Cr    -1.85460584   -1.90524844   -0.16330100       8
Cr    -1.90721686    0.19383216    1.80794538       9
Co     1.92157044    0.06258511    1.76481615      10
Ni    -1.75058175    0.03195984   -1.74403547      11
Ni     1.78850961    0.00379056   -1.76588989      12
Ni     1.78577112    1.77800037   -0.01668471      13
Co     0.02520698   -1.71927448   -1.78297134      14
Co     0.04752008    1.75014491    1.74717762      15
Cr    -1.65926249    1.79547139    0.02260845      16
Cr     0.02146318    1.71320095   -1.73583334      17
Ni    -0.09984483   -0.90428736    0.95553927      18
