          18
Lattice="  24.8920   0.0000   0.0000   0.0000  24.8920   0.0000   0.0000   0.0000  24.8920 " ConfE="      -5949.2313" DelE="          0.0000"
Ni     3.58928315   -0.07657275    0.01762837       1
Ni     0.07482081   -3.54820269    0.02637052       2
Co     0.06989915    3.54650819    0.02313489       3
Cr    -3.41780006   -0.04716303   -0.03072296       4
Co     0.07508622   -0.03041461    3.59951018       5
Cr     0.02584735   -0.02060936   -3.49951605       6
Ni     1.83579237   -0.06470847    1.76136349       7
Ni     1.79734930   -0.06870646   -1.70924861       8
Ni     0.09307709   -1.79081160    1.76798441       9
Ni     0.06184817   -1.81084027   -1.72990834      10
Ni     1.84924311    1.76653561    0.02201344      11
Ni     0.10401815    1.76681255    1.80222566      12
Co    -1.76658366   -1.77689971    0.01861942      13
Co    -1.73596240    1.75587341    0.01210870      14
Cr     0.07805122    1.73622610   -1.72684681      15
Cr    -1.68017231   -0.00305726    1.78702614      16
Co    -1.70450874    0.00012977   -1.78008558      17
Co     0.00000000    0.00000000    0.00000000      18
          18
Lattice="  24.8920   0.0000   0.0000   0.0000  24.8920   0.0000   0.0000   0.0000  24.8920 " ConfE="      -5948.0094" DelE="          1.2219"
Ni     3.56156965   -0.07862414    0.02665761       1
Ni     0.07424196   -3.49039672    0.04852304       2
Co     0.07867260    3.52217567    0.01719682       3
Cr    -3.44809136   -0.06539882   -0.04270151       4
Co     0.05983012    0.00748700    3.67676130       5
Cr     0.00856312   -0.00903804   -3.59227471       6
Ni     1.88559475   -0.01065409    1.93296487       7
Ni     1.81889173   -0.01444101   -1.85175157       8
Ni     0.03338917   -1.80648481    2.01860337       9
Ni     0.01378490   -1.84645245   -1.88701979      10
Ni     1.81925343    1.68520693    0.01249711      11
Ni     0.10218345    1.68717532    1.76271295      12
Co    -1.66469908   -1.71207206    0.06551580      13
Co    -1.69662490    1.69477389    0.01164168      14
Cr     0.07583043    1.67782565   -1.71804532      15
Cr    -1.66773304   -0.02485980    1.76360307      16
Co    -1.63794715   -0.00382243   -1.74340974      17
Co     0.95340533   -1.01680291    0.05676599      18
          18
Lattice="  24.8920   0.0000   0.0000   0.0000  24.8920   0.0000   0.0000   0.0000  24.8920 " ConfE="      -5948.7488" DelE="          0.4826"
Ni     3.61565510   -0.03843239    0.01598638       1
Ni     0.05890963   -3.57871305    0.03295752       2
Co     0.06907103    3.56164351    0.02139368       3
Cr    -3.44815668   -0.04755882   -0.04233223       4
Co     0.07409898   -0.02800240    3.61500033       5
Cr     0.01877873   -0.01453571   -3.54585699       6
Ni     1.83206444   -0.02756141    1.77083772       7
Ni     1.75684573   -0.03527721   -1.70579422       8
Ni     0.07240697   -1.76005925    1.76492236       9
Ni     0.05428827   -1.78633972   -1.70935795      10
Ni     1.81388373    1.74454842    0.00758924      11
Ni     0.09360476    1.73427658    1.77609147      12
Co    -1.72401477   -1.72630390    0.04181227      13
Co    -1.68695284    1.70611909    0.01538659      14
Cr     0.05899887    1.74398252   -1.74574746      15
Cr    -1.69674729    0.01217569    1.77393627      16
Co    -1.64131869    0.01503818   -1.73355117      17
Co     1.86121241   -1.81554949    0.04402660      18
