          18
Lattice="  24.8920   0.0000   0.0000   0.0000  24.8920   0.0000   0.0000   0.0000  24.8920 " ConfE="      -5941.1219" DelE="          0.0000"
Ni     0.03741688   -0.00580124    3.56489044       1
Co    -3.38121997    0.00376758   -0.05052761       2
Cr     0.04631742    3.47896275   -0.02816649       3
Cr     0.09215742   -3.66203648    0.03222327       4
Co     3.57375160   -0.04129487   -0.01194833       5
Cr     0.07030725    0.01343896   -3.57019892       6
Ni    -1.73110854    0.00974942    1.77776890       7
Co    -0.03601903    1.81846981    1.69289381       8
Ni     0.02793181   -1.81189379    1.79032003       9
Cr    -1.72281534   -0.00061389   -1.71734224      10
Cr     0.04182866    1.75791944   -1.79876668      11
Co    -1.65887248   -1.90212013   -0.05879292      12
Cr     1.76292258    0.02224386    1.75864811      13
Cr     1.81552060    1.77583145   -0.03300314      14
Cr     1.79554934   -1.86693574   -0.02773457      15
Cr     0.04100669   -1.81308624   -1.76718962      16
Co     1.80704248   -0.03169499   -1.76645088      17
Ni     0.00000000    0.00000000    0.00000000      18
          18
Lattice="  24.8920   0.0000   0.0000   0.0000  24.8920   0.0000   0.0000   0.0000  24.8920 " ConfE="      -5936.1482" DelE="          4.9737"
Ni     0.03466944    0.00767709    3.54329392       1
Co    -3.45078299    0.04860340   -0.03686858       2
Cr     0.07848924    3.57113472   -0.06511685       3
Cr    -0.03012125   -3.67321865    0.25483078       4
Co     3.63873578   -0.02948292   -0.00912776       5
Cr     0.11668406    0.03507375   -3.60330162       6
Ni    -1.76776310   -0.01802927    1.80474869       7
Co    -0.22555787    1.57713505    0.89393009       8
Ni     0.35053157   -1.39688409    1.45515419       9
Cr    -1.66040718    0.17383906   -1.80105064      10
Cr     0.06477449    1.74268786   -1.75534947      11
Co    -1.54881079   -2.64010060    1.68684295      12
Cr     1.87408272    0.22539747    1.81534609      13
Cr     1.85073075    1.75646553   -0.04113986      14
Cr     1.97184316   -1.91043040   -0.11412918      15
Cr     0.17628869   -1.82746330   -1.81456960      16
Co     1.74440277   -0.04042702   -1.66541927      17
Ni    -1.49078164   -1.46474254   -0.24645665      18
          18
Lattice="  24.8920   0.0000   0.0000   0.0000  24.8920   0.0000   0.0000   0.0000  24.8920 " ConfE="      -5941.1616" DelE="         -0.0396"
Ni     0.03665228   -0.01737071    3.54867415       1
Co    -3.40373676    0.01739471   -0.04603188       2
Cr     0.04494604    3.48481228   -0.03396293       3
Cr     0.09847589   -3.65709075    0.05589460       4
Co     3.57515075   -0.04004845   -0.00987955       5
Cr     0.07803394    0.02022220   -3.57492950       6
Ni    -1.72785166    0.01017175    1.77700490       7
Co    -0.03925893    1.83244251    1.68771145       8
Ni    -0.00426666    0.01102671   -0.00695354       9
Cr    -1.71545946    0.01152444   -1.73286296      10
Cr     0.04649824    1.76838680   -1.80585775      11
Co     0.06699265   -1.82713639    1.74093054      12
Cr     1.75393814    0.01338473    1.75443943      13
Cr     1.81191823    1.77514125   -0.02963204      14
Cr     1.79652611   -1.85714713   -0.01844784      15
Cr     0.05234605   -1.81319873   -1.76180642      16
Co     1.80851094   -0.02748872   -1.76595147      17
Ni    -1.71014480   -1.85715929    0.00611585      18
