          18
Lattice="  24.8920   0.0000   0.0000   0.0000  24.8920   0.0000   0.0000   0.0000  24.8920 " ConfE="      -5925.4147" DelE="          0.0000"
Ni    -3.46377370   -0.02591831    0.15840684       1
Co     0.03418333    3.41414039    0.07582286       2
Cr     3.66296003   -0.07402989    0.03263850       3
Co     0.07805191   -3.69008650    0.08581228       4
Cr     0.02681234   -0.02118879   -3.31992397       5
Ni     0.09675252   -0.09080465    3.63694619       6
Co    -1.69973913   -0.00327580   -1.59290073       7
Cr    -1.69263034    0.06814233    1.83012812       8
Cr     0.00928249    1.78971259   -1.65595090       9
Ni     0.09257279    1.68258237    1.83382818      10
Ni    -1.70020087   -1.85812066    0.14571893      11
Cr     1.90721750    1.70692687    0.03791053      12
Cr     1.89045736   -1.91460835    0.01586024      13
Ni     0.05741133   -1.87715201   -1.65174993      14
Ni     0.09700303   -1.85138633    1.82396662      15
Co     1.83717709   -0.06247132   -1.65286349      16
Ni     1.87867086   -0.10808619    1.79413380      17
Cr     0.00000000    0.00000000    0.00000000      18
          18
Lattice="  24.8920   0.0000   0.0000   0.0000  24.8920   0.0000   0.0000   0.0000  24.8920 " ConfE="      -5924.7779" DelE="          0.6367"
Ni    -3.40576071   -0.00289378    0.15186827       1
Co     0.02902967    3.36057378    0.09413535       2
Cr     3.64591898   -0.07173246    0.04154337       3
Co     0.07504005   -3.67770000    0.08959504       4
Cr     0.06653352   -0.05211173   -3.42569783       5
Ni     0.11586561   -0.09744335    3.70605325       6
Co    -1.73799813   -0.07594023   -1.78548519       7
Cr    -1.71119374    0.02524137    1.99432397       8
Cr     0.01802826    1.84526636   -1.81677087       9
Ni     0.15098057    1.69341981    1.97459133      10
Ni    -1.65667519   -1.77599096    0.14821262      11
Cr     1.90218345    1.68393236    0.06731921      12
Cr     1.84881222   -1.83984191    0.02329812      13
Ni     0.05232096   -1.81921152   -1.62376740      14
Ni     0.09720286   -1.82325537    1.84113158      15
Co     1.72930431   -0.00230398   -1.55853504      16
Ni     1.85977562   -0.09507124    1.81121552      17
Cr    -0.67934238    0.70193544    0.02697351      18
          18
Lattice="  24.8920   0.0000   0.0000   0.0000  24.8920   0.0000   0.0000   0.0000  24.8920 " ConfE="      -5925.3794" DelE="          0.0352"
Ni    -3.50957776   -0.07340419    0.14899858       1
Co     0.06092097    3.48369533    0.09029727       2
Cr     3.66276208   -0.07891898    0.04045050       3
Co     0.08368899   -3.71171192    0.08287988       4
Cr     0.05151912   -0.05657555   -3.39482938       5
Ni     0.10665194   -0.10552720    3.66391092       6
Co    -1.65868752   -0.03250158   -1.58372306       7
Cr    -1.67814346   -0.02859261    1.86184080       8
Cr     0.04790950    1.72612490   -1.65567310       9
Ni     0.10864379    1.63503442    1.81261264      10
Ni    -1.66509209   -1.81826211    0.15023153      11
Cr     1.84864545    1.65366491    0.02518096      12
Cr     1.88002180   -1.88560299    0.02067977      13
Ni     0.07171652   -1.84568817   -1.62361240      14
Ni     0.11165286   -1.86636292    1.82643597      15
Co     1.79517407   -0.05817191   -1.59179207      16
Ni     1.87671136   -0.12571813    1.79334864      17
Cr    -1.66370926    1.63282197    0.06961776      18
