          18
Lattice="  24.8920   0.0000   0.0000   0.0000  24.8920   0.0000   0.0000   0.0000  24.8920 " ConfE="      -5936.6840" DelE="          0.0000"
Co    -3.61924027    0.00537767    0.03438432       1
Cr    -0.21006095    3.51089991    0.05388529       2
Ni     3.50462739   -0.00735265    0.05466169       3
Cr    -0.01883483   -3.60099220    0.01967558       4
Ni    -0.03515216   -0.00343061   -3.49597397       5
Ni    -0.05173033   -0.04355215    3.58224973       6
Co    -1.80954304   -0.03503470   -1.72587642       7
Ni    -1.81322302   -0.02247515    1.77076327       8
Ni    -0.03983644    1.77166574   -1.67600979       9
Co    -0.04710972    1.78038342    1.76651036      10
Ni    -1.78781472   -1.81882461    0.05859411      11
Co     1.76767822    1.82547344    0.04464412      12
Co     1.73833493   -1.83335087    0.03615298      13
Co    -0.02941404   -1.83020940   -1.75210969      14
Ni    -0.04542100   -1.81226987    1.81443227      15
Cr     1.66136249   -0.07705851   -1.67932644      16
Ni     1.73708106   -0.02443377    1.81423627      17
Co     0.00000000    0.00000000    0.00000000      18
          18
Lattice="  24.8920   0.0000   0.0000   0.0000  24.8920   0.0000   0.0000   0.0000  24.8920 " ConfE="      -5936.0273" DelE="          0.6567"
Co    -3.51691437    0.03011011    0.04499568       1
Cr    -0.26088059    3.43022834    0.04784241       2
Ni     3.49425944    0.00804291    0.04706840       3
Cr    -0.02268227   -3.60949294    0.02405348       4
Ni    -0.02255006   -0.00137853   -3.55146879       5
Ni    -0.04407334   -0.05128656    3.63726493       6
Co    -1.82683473   -0.07215767   -1.86593765       7
Ni    -1.86414722   -0.07703253    1.95324167       8
Ni     0.03008143    1.81866623   -1.85428796       9
Co     0.00528432    1.82872269    1.95205650      10
Ni    -1.75153264   -1.75240450    0.05795232      11
Co     1.68637640    1.79668906    0.02238657      12
Co     1.68712173   -1.76917380    0.01165761      13
Co    -0.02519181   -1.78605704   -1.75188824      14
Ni    -0.05068543   -1.77323105    1.80666388      15
Cr     1.61756476   -0.07212930   -1.67716232      16
Ni     1.68555236   -0.00317701    1.78214982      17
Co    -0.75570236    0.74392292    0.05372819      18
          18
Lattice="  24.8920   0.0000   0.0000   0.0000  24.8920   0.0000   0.0000   0.0000  24.8920 " ConfE="      -5936.9459" DelE="         -0.2619"
Co    -3.64237333    0.00332665    0.04360482       1
Cr    -0.15214951    3.56607809    0.02312701       2
Ni     3.51638376   -0.00812932    0.05095723       3
Cr    -0.01694425   -3.62945373    0.01875273       4
Ni    -0.03066940   -0.00618463   -3.51405576       5
Ni    -0.04692645   -0.05376707    3.60508705       6
Co    -1.79628040   -0.03978765   -1.71671472       7
Ni    -1.79194049   -0.04105935    1.78742181       8
Ni    -0.01126463    1.70839433   -1.65128685       9
Co    -0.02055951    1.76619782    1.79001254      10
Ni    -1.76127347   -1.78139380    0.05684318      11
Co     1.74452500    1.80309841    0.04821802      12
Co     1.71168529   -1.79855994    0.01506821      13
Co    -0.01712748   -1.78877847   -1.73183785      14
Ni    -0.03637468   -1.80593748    1.79888100      15
Cr     1.67174247   -0.09930013   -1.68702858      16
Ni     1.71188510   -0.02730127    1.78247840      17
Co    -1.81216530    1.79502405    0.06775830      18
