          18
Lattice="  24.8920   0.0000   0.0000   0.0000  24.8920   0.0000   0.0000   0.0000  24.8920 " ConfE="      -5941.3559" DelE="          0.0000"
Ni    -3.49877054    0.13581071    0.09797289       1
Cr    -0.05856334   -3.37790707    0.11951311       2
Cr     3.60631704    0.06631966    0.10904722       3
Co     0.05476509    3.68578326    0.06276767       4
Ni     0.01808123    0.12032842    3.62126406       5
Ni     0.00925389    0.09218965   -3.49239719       6
Ni    -1.75114962    0.13495971    1.82812345       7
Cr    -1.71880714    0.14147530   -1.64409590       8
Co     0.02595171   -1.70525643    1.77585907       9
Cr    -0.03644738   -1.65818005   -1.68102001      10
Ni    -1.73096688    1.92678503    0.08649671      11
Cr     1.85458620   -1.68026858    0.07242043      12
Co     1.83034139    1.83111657    0.03411785      13
Ni     0.03286678    1.89869931    1.82962259      14
Co     0.05604917    1.86547540   -1.68889691      15
Co     1.78749046    0.05737144    1.80400571      16
Cr     1.82326553    0.06527147   -1.68943494      17
Co     0.00000000    0.00000000    0.00000000      18
          18
Lattice="  24.8920   0.0000   0.0000   0.0000  24.8920   0.0000   0.0000   0.0000  24.8920 " ConfE="      -5940.2714" DelE="          1.0845"
Ni    -3.45641753    0.13637804    0.09937334       1
Cr    -0.01103098   -3.43839477    0.10476545       2
Cr     3.43967835    0.09046576    0.11237215       3
Co     0.10514031    3.60971934    0.05346331       4
Ni     0.01129101    0.14219272    3.70766304       5
Ni     0.00930129    0.09859280   -3.57578988       6
Ni    -1.73173030    0.18151383    1.90879577       7
Cr    -1.65242618    0.19630641   -1.68973497       8
Co     0.14807476   -1.72102481    2.02063608       9
Cr     0.02226290   -1.70606156   -1.90138967      10
Ni    -1.67214469    1.89385714    0.08119756      11
Cr     1.70301729   -1.64505906    0.05572712      12
Co     0.84442986    0.84145516   -0.00031125      13
Ni     0.01012942    1.93334819    1.94164790      14
Co     0.00991971    1.93299348   -1.86793632      15
Co     1.81205126    0.03267816    1.98107842      16
Cr     1.77478198    0.02215803   -1.81288351      17
Co    -0.98915704   -1.15922706    0.04357046      18
          18
Lattice="  24.8920   0.0000   0.0000   0.0000  24.8920   0.0000   0.0000   0.0000  24.8920 " ConfE="      -5941.1877" DelE="          0.1682"
Ni    -3.51133390    0.14927072    0.09080598       1
Cr    -0.02331384   -3.40731138    0.08739959       2
Cr     3.54894620    0.09829143    0.11295293       3
Co     0.08057085    3.67746685    0.05971249       4
Ni     0.03070472    0.13425959    3.62715315       5
Ni     0.02408944    0.11230736   -3.48800172       6
Ni    -1.73069387    0.15423052    1.83687583       7
Cr    -1.71412696    0.16160252   -1.65972002       8
Co     0.07134996   -1.69017612    1.82623158       9
Cr    -0.00014203   -1.66255527   -1.72228599      10
Ni    -1.73242818    1.91409220    0.08317805      11
Cr     1.81931611   -1.70672270    0.06241256      12
Co     0.10739515    0.08030342    0.02467583      13
Ni     0.05608588    1.91351421    1.81499970      14
Co     0.12516938    1.87877358   -1.64331778      15
Co     1.80904733    0.08968706    1.78642731      16
Cr     1.81586517    0.12764372   -1.64396331      17
Co    -1.71051276   -1.65901505    0.04965191      18
