          18
Lattice="  24.8920   0.0000   0.0000   0.0000  24.8920   0.0000   0.0000   0.0000  24.8920 " ConfE="      -5934.3932" DelE="          0.0000"
Co    -3.36874079    0.01923368   -0.08630261       1
Co     0.11327354   -3.51683254   -0.02488123       2
Ni     3.58811907    0.04744642    0.00381970       3
Co     0.03442236    3.58295327    0.02301914       4
Co     0.05961684    0.07192233    3.52300112       5
Co     0.04067686    0.02631222   -3.54747862       6
Co    -1.67054063    0.11060860    1.67497565       7
Cr    -1.71928014   -0.06252544   -1.74737886       8
Ni     0.00861671   -1.72735336    1.72179598       9
Co    -0.01268336   -1.72323203   -1.74790719      10
Cr    -1.76334855    1.94884210   -0.01624459      11
Ni     1.85736566   -1.74331171   -0.01623764      12
Co     1.74777104    1.82588693    0.00525095      13
Cr     0.01844061    1.86063278    1.74794241      14
Ni    -0.00021669    1.81695438   -1.75632033      15
Ni     1.80751293    0.04766506    1.76334580      16
Ni     1.80692172    0.04282070   -1.77561734      17
Cr     0.00000000    0.00000000    0.00000000      18
          18
Lattice="  24.8920   0.0000   0.0000   0.0000  24.8920   0.0000   0.0000   0.0000  24.8920 " ConfE="      -5933.7932" DelE="          0.6000"
Co    -3.36094882    0.02088325   -0.08309396       1
Co     0.06945974   -3.47664489   -0.02461939       2
Ni     3.57928492    0.03393695    0.00168450       3
Co     0.02735040    3.59736310    0.01597078       4
Co     0.07714009    0.08434711    3.58489317       5
Co     0.04674659    0.02703169   -3.59813017       6
Co    -1.68336179    0.12196709    1.78288971       7
Cr    -1.70302031   -0.00778517   -1.93764239       8
Ni     0.06994475   -1.74779747    1.84626364       9
Co     0.07789932   -1.80463729   -1.91120619      10
Cr    -1.75471285    1.89644340    0.00203072      11
Ni     1.78515621   -1.73748021   -0.02043401      12
Co     1.67843201    1.78502722    0.02418482      13
Cr     0.01024135    1.78084235    1.65474918      14
Ni    -0.02915337    1.76647291   -1.72004271      15
Ni     1.76845941    0.03098694    1.74742722      16
Ni     1.74872190    0.02127659   -1.75122261      17
Cr    -0.84991706   -0.86862292   -0.06846232      18
          18
Lattice="  24.8920   0.0000   0.0000   0.0000  24.8920   0.0000   0.0000   0.0000  24.8920 " ConfE="      -5934.3671" DelE="          0.0260"
Co    -3.45751437    0.04838484   -0.05409636       1
Co     0.11019069   -3.55936725   -0.02700464       2
Ni     3.59701970    0.04284180    0.00443025       3
Co     0.03912786    3.62072408    0.01902934       4
Co     0.06889320    0.08492199    3.54635846       5
Co     0.04447033    0.03099742   -3.56699905       6
Co    -1.62892866    0.13178347    1.63284789       7
Cr    -1.68648060   -0.03238121   -1.71475107       8
Ni     0.04663204   -1.70117443    1.72661743       9
Co     0.00510375   -1.71992710   -1.75047238      10
Cr    -1.73371820    1.88395104    0.01673247      11
Ni     1.82098657   -1.74671247   -0.01505900      12
Co     1.71583244    1.82205368    0.02903083      13
Cr     0.04352953    1.85374962    1.69152384      14
Ni    -0.00796386    1.79113128   -1.70856352      15
Ni     1.79125321    0.05088333    1.74423107      16
Ni     1.77995031    0.04333577   -1.74689989      17
Cr    -1.65313839   -1.76230184    0.00327056      18
