          18
Lattice="  24.8920   0.0000   0.0000   0.0000  24.8920   0.0000   0.0000   0.0000  24.8920 " ConfE="      -5947.0403" DelE="          0.0000"
Cr     0.01996939   -0.01651221   -3.54959887       1
Ni    -3.54807723   -0.07612762    0.03043386       2
Cr     0.02807548    3.38687975   -0.07593419       3
Co     3.53087914   -0.03205167    0.03745657       4
Co     0.01655343   -3.59997172    0.04432930       5
Co     0.00099138   -0.11010199    3.57790081       6
Ni    -1.77335081   -0.05626871   -1.76809580       7
Ni     1.75095516   -0.03868083   -1.77136436       8
Cr    -1.70417520    1.68208782    0.01311878       9
Ni    -0.00275001   -1.84127537   -1.77934356      10
Co     1.74848273    1.71808169   -0.00159886      11
Cr    -1.69483599   -1.79842904    0.06598370      12
Co     0.01740405    1.72690730    1.84913502      13
Co    -1.77537989   -0.03098872    1.80253323      14
Cr     1.73050086   -1.79404272    0.04279289      15
Co     1.77943924   -0.05154846    1.81130243      16
Cr     0.02731172   -1.77896366    1.83636133      17
Co     0.00000000    0.00000000    0.00000000      18
          18
Lattice="  24.8920   0.0000   0.0000   0.0000  24.8920   0.0000   0.0000   0.0000  24.8920 " ConfE="      -5946.2972" DelE="          0.7431"
Cr     0.01062635    0.01132922   -3.50766420       1
Ni    -3.61140655   -0.09548585    0.04477810       2
Cr     0.01441762    3.37987740   -0.06736696       3
Co     3.60061975   -0.06136990    0.05894129       4
Co     0.01114174   -3.58340809    0.03667429       5
Co     0.00439608   -0.10044500    3.57596430       6
Ni    -1.93201978   -0.10688681   -1.80867115       7
Ni     1.89208178   -0.09261211   -1.78849278       8
Cr    -1.85672382    1.65841290    0.07496980       9
Ni    -0.00711286   -1.77059750   -1.76458759      10
Co     1.92842313    1.72795442    0.06262967      11
Cr    -1.57692412   -1.61067556    0.08948327      12
Co     0.02139799    1.68029594    1.73725011      13
Co    -1.76537337   -0.02344948    1.78937683      14
Cr     1.66326749   -1.71199342    0.04933795      15
Co     1.75331451   -0.07367570    1.76487999      16
Cr     0.03466119   -1.74575356    1.83922122      17
Co    -0.03319491    0.95068289   -0.93645668      18
          18
Lattice="  24.8920   0.0000   0.0000   0.0000  24.8920   0.0000   0.0000   0.0000  24.8920 " ConfE="      -5947.0225" DelE="          0.0178"
Cr     0.01751771   -0.04264010   -3.60975463       1
Ni    -3.55255050   -0.07802286    0.03195578       2
Cr    -0.00296513    3.47608204    0.00297871       3
Co     3.54007511   -0.04495698    0.04609461       4
Co     0.01194254   -3.60652723    0.04188912       5
Co     0.00273024   -0.11270667    3.59790197       6
Ni    -1.76886725   -0.07133986   -1.77478091       7
Ni     1.73981941   -0.07025268   -1.74634483       8
Cr    -1.60404409    1.56342937    0.03507846       9
Ni    -0.00380156   -1.81504326   -1.77842970      10
Co     1.73199047    1.67529430    0.03128775      11
Cr    -1.54869783   -1.64266008    0.09994259      12
Co     0.01798316    1.69739411    1.80535631      13
Co    -1.74503529   -0.03048687    1.79573372      14
Cr     1.64886669   -1.74518477    0.06041559      15
Co     1.74376274   -0.08584713    1.78337177      16
Cr     0.05038112   -1.77391772    1.86456052      17
Co     0.01720763    1.69715921   -1.75262977      18
