          18
Lattice="  24.8920   0.0000   0.0000   0.0000  24.8920   0.0000   0.0000   0.0000  24.8920 " ConfE="      -5949.7926" DelE="          0.0000"
Co    -3.46806797   -0.01036080    0.03946783       1
Ni     0.02220215   -0.02822309   -3.48130455       2
Co     3.64000848   -0.03610334    0.05632562       3
Co     0.02453270    0.01662076    3.63304317       4
Co     0.04957567   -3.53210910    0.01660648       5
Cr     0.03342638    3.48702787    0.02546460       6
Ni    -1.73475595   -1.76567754    0.03003258       7
Co    -1.69635792    1.71628385    0.03771687       8
Cr    -0.01777824   -1.71713819   -1.72503737       9
Cr    -0.02256327    1.67140935   -1.69846169      10
Cr    -1.66852201   -0.06549021    1.86849915      11
Co     1.82482419    0.00426622   -1.70111254      12
Ni     1.82330041   -0.01670302    1.84193898      13
Co     0.02213264   -1.76691868    1.82833907      14
Co     0.06336237    1.77177507    1.78584851      15
Ni     1.81585535   -1.76162061    0.04751782      16
Cr     1.79323368    1.71612051    0.04766880      17
Co     0.00000000    0.00000000    0.00000000      18
          18
Lattice="  24.8920   0.0000   0.0000   0.0000  24.8920   0.0000   0.0000   0.0000  24.8920 " ConfE="      -5949.1839" DelE="          0.6087"
Co    -3.41588797   -0.01302949    0.02913271       1
Ni     0.02638284   -0.02438239   -3.47957479       2
Co     3.62417170   -0.03873436    0.04485471       3
Co     0.01437511    0.01986264    3.63034037       4
Co     0.04705072   -3.59546728    0.03851354       5
Cr     0.07594632    3.59356094    0.05452330       6
Ni    -1.75863107   -1.88788059    0.07233077       7
Co    -1.69192204    1.87614394    0.13520320       8
Cr     0.01578018   -1.90334447   -1.73185193       9
Cr     0.07350422    1.90879799   -1.75674160      10
Cr    -1.59646051   -0.06294748    1.74927017      11
Co     1.69356357    0.02942601   -1.63553989      12
Ni     1.79293130   -0.01879459    1.80919347      13
Co    -0.00115908   -1.74804944    1.79803960      14
Co     0.08180081    1.75967931    1.74741854      15
Ni     1.75980810   -1.75872740    0.03635453      16
Cr     1.72416736    1.67730495    0.02521937      17
Co    -0.95440797    0.03219213   -1.06373561      18
          18
Lattice="  24.8920   0.0000   0.0000   0.0000  24.8920   0.0000   0.0000   0.0000  24.8920 " ConfE="      -5949.6570" DelE="          0.1357"
Co    -3.50321471   -0.01841006    0.07794640       1
Ni     0.04092837   -0.02757530   -3.53030356       2
Co     3.64925051   -0.03836553    0.05444388       3
Co     0.02371933    0.02235875    3.64958226       4
Co     0.05070679   -3.55501205    0.02962782       5
Cr     0.04687630    3.52730964    0.03429010       6
Ni    -1.71309109   -1.77283116    0.06919587       7
Co    -1.64067090    1.68885977    0.07638897       8
Cr     0.02131774   -1.73312345   -1.69852909       9
Cr     0.05222546    1.68341270   -1.68222950      10
Cr    -1.63245268   -0.04940577    1.81753071      11
Co     1.74836464    0.01834310   -1.65762519      12
Ni     1.81402924   -0.01376138    1.82815708      13
Co     0.01140871   -1.73248641    1.82030458      14
Co     0.08173736    1.73859071    1.75287755      15
Ni     1.77899286   -1.74003072    0.05240893      16
Cr     1.76576123    1.69313081    0.05750044      17
Co    -1.67633211   -0.03009154   -1.66488730      18
