          18
Lattice="  24.8920   0.0000   0.0000   0.0000  24.8920   0.0000   0.0000   0.0000  24.8920 " ConfE="      -5929.5942" DelE="          0.0000"
Cr    -0.06888661   -0.07612532   -3.60675063       1
Co    -3.58141867   -0.00452708   -0.01602461       2
Ni    -0.01943089   -3.59943755   -0.04401289       3
Co    -0.03837850    3.49748770   -0.04772844       4
Cr     3.52646041   -0.02993950   -0.04377725       5
Cr    -0.03248106   -0.03233274    3.49056389       6
Ni    -0.07247558   -1.78150045   -1.81811545       7
Ni    -1.80158806   -1.75637948   -0.05796533       8
Ni    -0.05762314    1.68821359   -1.80304576       9
Co    -1.77632853    1.70920046    0.02143885      10
Ni     1.75478283   -0.04472637   -1.81659230      11
Ni     1.76292981   -1.81718460   -0.04327071      12
Ni    -0.02968698   -1.79878459    1.72393302      13
Cr    -1.78996969    0.05513662    1.69004250      14
Cr     1.72792664    1.77595182   -0.01622507      15
Co    -0.00947412    1.71898178    1.77458322      16
Cr     1.76396370   -0.01762167    1.75974418      17
Co     0.00000000    0.00000000    0.00000000      18
          18
Lattice="  24.8920   0.0000   0.0000   0.0000  24.8920   0.0000   0.0000   0.0000  24.8920 " ConfE="      -5928.6999" DelE="          0.8943"
Cr    -0.17289126   -0.08539590   -3.44863540       1
Co    -3.47934926   -0.00884248   -0.01510720       2
Ni     0.00449623   -3.67055727   -0.02244799       3
Co     0.00395589    3.57565045   -0.02801271       4
Cr     3.54515546   -0.03375030   -0.08344858       5
Cr    -0.02523320   -0.04782875    3.50994720       6
Ni    -0.02184328   -1.96023926   -1.83227687       7
Ni    -1.81624674   -1.96847488   -0.01709975       8
Ni     0.01770931    1.89100397   -1.82052525       9
Co    -1.76662744    1.93141811    0.06698133      10
Ni     1.65134302   -0.02940915   -1.76105986      11
Ni     1.73585595   -1.80738558   -0.05426161      12
Ni    -0.03745631   -1.77792541    1.67388817      13
Cr    -1.71249249    0.03041100    1.58630625      14
Cr     1.70018384    1.77699093   -0.01901795      15
Co     0.01477998    1.67178554    1.71218471      16
Cr     1.65886290    0.00066273    1.64909806      17
Co    -0.95138835   -0.00182179   -0.88909862      18
          18
Lattice="  24.8920   0.0000   0.0000   0.0000  24.8920   0.0000   0.0000   0.0000  24.8920 " ConfE="      -5929.2716" DelE="          0.3226"
Cr    -0.05919358   -0.07059995   -3.61514007       1
Co    -3.61711915   -0.01087301   -0.01114507       2
Ni    -0.00522609   -3.61727307   -0.03184647       3
Co    -0.03147676    3.51054441   -0.03812191       4
Cr     3.59083500   -0.03749215   -0.05461819       5
Cr    -0.01422363   -0.03832567    3.52441710       6
Ni    -0.03191030   -1.80461294   -1.79715173       7
Ni    -1.78290550   -1.76778256   -0.03037571       8
Ni    -0.00917240    1.70476535   -1.76819687       9
Co    -1.74402607    1.68599684    0.02776910      10
Ni     1.72237857   -0.03439787   -1.77049476      11
Ni     1.75906474   -1.78555855   -0.03099450      12
Ni    -0.02261048   -1.74694763    1.69489512      13
Cr    -1.75043283    0.05522967    1.63870463      14
Cr     1.76647939    1.75868175   -0.01056653      15
Co     0.03364656    1.62268863    1.70530774      16
Cr     1.75200090   -0.00700931    1.72990920      17
Co    -1.75275174   -0.02846733   -1.76345052      18
