          18
Lattice="  24.8920   0.0000   0.0000   0.0000  24.8920   0.0000   0.0000   0.0000  24.8920 " ConfE="      -5940.4485" DelE="          0.0000"
Ni     3.46468343    0.00865478    0.00835578       1
Co    -0.06498104   -3.50814801   -0.04604889       2
Co    -3.62473906    0.00663335   -0.01440821       3
Co    -0.04717449    3.61839849   -0.04125234       4
Ni    -0.04153378    0.02894831   -3.55408357       5
Cr    -0.02985248   -0.02633553    3.57449647       6
Co     1.76531725    0.04604586   -1.81325268       7
Co     1.72951549    0.04618574    1.83424273       8
Ni     0.03062255   -1.74484107   -1.73403138       9
Ni     0.00004888   -1.73909145    1.73548422      10
Ni     1.71999154    1.82178776   -0.01417051      11
Cr    -1.86986388   -1.71965271   -0.03627099      12
Ni    -1.82387829    1.77705300   -0.01953701      13
Ni    -0.04160712    1.80912929   -1.79493527      14
Co    -0.05288189    1.76378558    1.77626791      15
Co    -1.84778199    0.00073638   -1.80070139      16
Cr    -1.75589891    0.03214429    1.76288744      17
Ni     0.00000000    0.00000000    0.00000000      18
          18
Lattice="  24.8920   0.0000   0.0000   0.0000  24.8920   0.0000   0.0000   0.0000  24.8920 " ConfE="      -5939.6513" DelE="          0.7972"
Ni     3.45298318    0.00194928    0.00832849       1
Co    -0.05252065   -3.47364323   -0.04598569       2
Co    -3.62727502    0.00062490   -0.01309294       3
Co    -0.03868744    3.60544994   -0.04286607       4
Ni    -0.04941134    0.04616471   -3.62382120       5
Cr    -0.06096958   -0.00798425    3.70202632       6
Co     1.77211914    0.09606009   -1.94222276       7
Co     1.75651171    0.08009709    1.97806739       8
Ni    -0.05852154   -1.75680499   -1.91274500       9
Ni    -0.04028226   -1.75048999    1.92636208      10
Ni     1.66336670    1.71298316   -0.01348492      11
Cr    -1.72269290   -1.64678428   -0.02185507      12
Ni    -1.80277027    1.75341176   -0.02353071      13
Ni    -0.04339248    1.77826386   -1.79605166      14
Co    -0.05703886    1.68941996    1.76226850      15
Co    -1.81297386   -0.00568612   -1.77928267      16
Cr    -1.64753690    0.02077690    1.69833809      17
Ni     1.10890384   -1.13045944   -0.00261154      18
          18
Lattice="  24.8920   0.0000   0.0000   0.0000  24.8920   0.0000   0.0000   0.0000  24.8920 " ConfE="      -5940.1529" DelE="          0.2956"
Ni     3.51302814    0.03067507   -0.00067834       1
Co    -0.09836657   -3.52995953   -0.04395384       2
Co    -3.65038901    0.00840173   -0.01502923       3
Co    -0.04925731    3.62495307   -0.03898518       4
Ni    -0.04780059    0.03281904   -3.57447764       5
Cr    -0.04013001   -0.02698842    3.62945534       6
Co     1.75029709    0.06046771   -1.82306766       7
Co     1.71019943    0.05723763    1.82366219       8
Ni    -0.03581823   -1.70666820   -1.74446883       9
Ni    -0.04027766   -1.70032595    1.73005238      10
Ni     1.68388969    1.76460384   -0.01581829      11
Cr    -1.84577829   -1.67303819   -0.03386272      12
Ni    -1.81069768    1.75835777   -0.02386067      13
Ni    -0.04911905    1.78932219   -1.78174584      14
Co    -0.07390204    1.70433637    1.75278806      15
Co    -1.84276488    0.00701839   -1.78105076      16
Cr    -1.72488369    0.04790059    1.72090139      17
Ni     1.68977843   -1.69634245   -0.03220961      18
