          18
Lattice="  24.8920   0.0000   0.0000   0.0000  24.8920   0.0000   0.0000   0.0000  24.8920 " ConfE="      -5940.4485" DelE="          0.0000"
Ni    -3.46494133   -0.00794126   -0.00807740       1
Ni    -0.01119708   -3.47647437   -0.03902389       2
Co     0.08964539    3.53649590   -0.02201610       3
Co     3.56919464    0.03755869   -0.05611134       4
Co     0.06551670    0.04460122   -3.59227105       5
Cr     0.03657497    0.01531324    3.54635309       6
Ni    -0.00091995   -1.75951076   -1.77951643       7
Ni     0.03668670   -1.73293763    1.74400679       8
Ni    -1.74451859    1.81361766   -0.02251726       9
Co    -1.69965832    0.03807116   -1.82130752      10
Co    -1.73507105    0.03809995    1.82533337      11
Ni     0.03563149    1.80372471   -1.78423518      12
Cr     1.87985490   -1.74547848   -0.08769797      13
Cr     0.01823813    1.76382989    1.79684001      14
Cr     1.83176338    1.78440486    0.02619220      15
Cr     1.76346935    0.04406691   -1.82607225      16
Co     1.84538845    0.02358716    1.75559087      17
Ni     0.00000000    0.00000000    0.00000000      18
          18
Lattice="  24.8920   0.0000   0.0000   0.0000  24.8920   0.0000   0.0000   0.0000  24.8920 " ConfE="      -5939.3884" DelE="          1.0601"
Ni    -3.48151212   -0.00474451   -0.00117984       1
Ni    -0.01868747   -3.42139692   -0.04356136       2
Co     0.08677726    3.52282592   -0.01284613       3
Co     3.59437334    0.03372707   -0.05400956       4
Co     0.09020747    0.06093503   -3.65275724       5
Cr     0.05750100    0.03532089    3.61381958       6
Ni     0.06280066   -1.76574473   -1.92153972       7
Ni     0.08449211   -1.72931881    1.85365616       8
Ni    -1.69011647    1.69777235   -0.00981377       9
Co    -1.70791665    0.11977516   -1.98965476      10
Co    -1.76310625    0.07798433    1.98604926      11
Ni     0.05092753    1.76375227   -1.75641734      12
Cr     1.77951780   -1.65159148   -0.07939964      13
Cr     0.00564314    1.69505704    1.77779634      14
Cr     1.80015679    1.70112101    0.03729036      15
Cr     1.72479000    0.03380149   -1.78294131      16
Co     1.80031163    0.03410376    1.71973796      17
Ni    -1.13019278   -1.01228014   -0.03238967      18
          18
Lattice="  24.8920   0.0000   0.0000   0.0000  24.8920   0.0000   0.0000   0.0000  24.8920 " ConfE="      -5940.0116" DelE="          0.4369"
Ni    -3.52343300    0.01830039   -0.00869109       1
Ni     0.02510474   -3.51398429   -0.03814324       2
Co     0.08771000    3.54615260   -0.02254868       3
Co     3.61131689    0.03909055   -0.05407867       4
Co     0.07663955    0.04861572   -3.61644401       5
Cr     0.04420915    0.01936881    3.57285168       6
Ni     0.04494748   -1.72952951   -1.78370462       7
Ni     0.06005967   -1.69623862    1.72011520       8
Ni    -1.71185341    1.75970682   -0.01628891       9
Co    -1.68298119    0.04391480   -1.81904088      10
Co    -1.69680119    0.05954798    1.80706829      11
Ni     0.04969338    1.76123811   -1.74460765      12
Cr     1.84003222   -1.68917799   -0.08421691      13
Cr     0.01831315    1.72581885    1.77013538      14
Cr     1.80780180    1.72029245    0.02889484      15
Cr     1.77057207    0.04768245   -1.79128794      16
Co     1.81978969    0.04012176    1.71041742      17
Ni    -1.71765036   -1.70648566   -0.04027074      18
