          18
Lattice="  24.8920   0.0000   0.0000   0.0000  24.8920   0.0000   0.0000   0.0000  24.8920 " ConfE="      -5946.8796" DelE="          0.0000"
Co     3.56200022    0.02248573    0.00356649       1
Cr     0.08214000   -0.01478556    3.51604895       2
Ni     0.03423278   -3.51885909   -0.03198087       3
Cr     0.01402532    0.01838466   -3.58052150       4
Co    -3.47870632    0.00326561   -0.03488340       5
Cr    -0.01007986    3.58421998    0.02964407       6
Cr     1.84935627   -1.63671848    0.09901142       7
Cr     0.08371952   -1.73513940    1.77598980       8
Cr     1.76583384    1.73386345    0.07710099       9
Co     0.01544432    1.74276111    1.76997228      10
Ni     0.06316133   -1.75857504   -1.79246189      11
Ni     1.80472990    0.03047155   -1.80203544      12
Cr    -1.80551724   -1.80040187   -0.08924334      13
Cr    -1.78726561    0.00307507    1.81897534      14
Cr    -1.74836925    0.00989328   -1.80487617      15
Co     0.01475405    1.78452206   -1.75672101      16
Cr    -1.73793145    1.81816400   -0.01374380      17
Ni     0.00000000    0.00000000    0.00000000      18
          18
Lattice="  24.8920   0.0000   0.0000   0.0000  24.8920   0.0000   0.0000   0.0000  24.8920 " ConfE="      -5946.1685" DelE="          0.7111"
Co     3.52054008    0.03165171    0.00437039       1
Cr     0.09587776   -0.00215969    3.54387970       2
Ni    -0.00026957   -3.59804834   -0.05878270       3
Cr     0.03110002    0.01118660   -3.60544648       4
Co    -3.48278186   -0.00398278   -0.02527644       5
Cr    -0.06207852    3.69566459   -0.00501834       6
Cr     1.81370149   -1.83173721   -0.03029291       7
Cr     0.03661870   -1.99929288    1.82730273       8
Cr     1.70168416    1.92178584   -0.01764266       9
Co    -0.10186588    1.98845473    1.80694039      10
Ni     0.06183157   -1.74891146   -1.78174499      11
Ni     1.78104128    0.02840133   -1.76339183      12
Cr    -1.58878529   -1.61879839    0.00802325      13
Cr    -1.70417578    0.01432812    1.80494483      14
Cr    -1.68418534    0.00084285   -1.77225197      15
Co     0.01982519    1.75761298   -1.71128868      16
Cr    -1.61737944    1.65852483   -0.03338393      17
Ni     0.95150726    0.00927705    1.12802608      18
          18
Lattice="  24.8920   0.0000   0.0000   0.0000  24.8920   0.0000   0.0000   0.0000  24.8920 " ConfE="      -5946.7255" DelE="          0.1541"
Co     3.58746325    0.02357135   -0.03008374       1
Cr    -0.00051145    0.00380231    3.61477088       2
Ni     0.01534643   -3.54090121   -0.04350867       3
Cr     0.01980918    0.00704860   -3.64163700       4
Co    -3.49513061    0.00020006   -0.03409482       5
Cr    -0.02940748    3.60559540    0.03300701       6
Cr     1.69651976   -1.65123079    0.02100860       7
Cr     0.04522699   -1.74905197    1.79185392       8
Cr     1.61918064    1.70636417   -0.01671825       9
Co    -0.02370560    1.74134130    1.74765856      10
Ni     0.05341742   -1.74153755   -1.82060412      11
Ni     1.78696846    0.01423777   -1.79546603      12
Cr    -1.57604417   -1.57089446   -0.02423848      13
Cr    -1.74413237    0.01406941    1.82458278      14
Cr    -1.71572907    0.00322371   -1.82787060      15
Co     0.00894765    1.73580147   -1.73861579      16
Cr    -1.62120245    1.63370433   -0.03998363      17
Ni     1.76768583    0.02050747    1.77058817      18
