          18
Lattice="  24.8920   0.0000   0.0000   0.0000  24.8920   0.0000   0.0000   0.0000  24.8920 " ConfE="      -5946.2103" DelE="          0.0000"
Co     3.52763890   -0.03829169   -0.01619925       1
Cr     0.09839441    0.04118455    3.47818454       2
Co    -3.55468939   -0.03897253    0.00586230       3
Cr     0.02157809    0.01382477   -3.53367945       4
Cr     0.01716850    3.45012182    0.07262487       5
Ni    -0.00186008   -3.55827555   -0.00238938       6
Co     1.79177537    1.69123152    0.03799321       7
Ni     1.74458647   -1.76316905   -0.01476441       8
Co     0.03423319    1.74520159    1.77361779       9
Ni     0.03967336   -1.72616324    1.76874749      10
Cr     1.80987778   -0.03813907   -1.80615627      11
Co    -1.81156416   -0.00396783    1.76525503      12
Ni    -1.76730827   -0.01007310   -1.77815710      13
Co     0.05344916    1.77248457   -1.77163114      14
Co    -0.02682662   -1.78803340   -1.80338717      15
Co    -1.79048114    1.75797487    0.01677706      16
Cr    -1.80850211   -1.77290206    0.03108108      17
Ni     0.00000000    0.00000000    0.00000000      18
          18
Lattice="  24.8920   0.0000   0.0000   0.0000  24.8920   0.0000   0.0000   0.0000  24.8920 " ConfE="      -5945.5639" DelE="          0.6464"
Co     3.48234472   -0.03885303   -0.01577040       1
Cr     0.10102673    0.02710617    3.43644829       2
Co    -3.55722790   -0.03801459    0.01609246       3
Cr     0.04195960    0.01541005   -3.52726174       4
Cr    -0.00694468    3.52258463    0.06050957       5
Ni    -0.02560484   -3.63289999   -0.02264200       6
Co     1.82522615    1.90719594   -0.05294367       7
Ni     1.78003270   -1.95184684   -0.06303931       8
Co    -0.03677221    1.94285347    1.77262118       9
Ni    -0.04461520   -1.94460891    1.78302313      10
Cr     1.74227365   -0.04454730   -1.70482948      11
Co    -1.71832976   -0.00999520    1.72609593      12
Ni    -1.70835006   -0.01076325   -1.71434983      13
Co     0.05911179    1.74361613   -1.71896353      14
Co    -0.01533562   -1.77825814   -1.74954533      15
Co    -1.76078226    1.74851309    0.03107552      16
Cr    -1.77717745   -1.76033154    0.03299589      17
Ni     0.89285493   -0.00911006    0.89150331      18
          18
Lattice="  24.8920   0.0000   0.0000   0.0000  24.8920   0.0000   0.0000   0.0000  24.8920 " ConfE="      -5946.1629" DelE="          0.0473"
Co     3.56585242   -0.04087419   -0.05038822       1
Cr     0.03708095    0.02063646    3.55730130       2
Co    -3.57494172   -0.03179115    0.00012635       3
Cr     0.02487313    0.01675902   -3.55081033       4
Cr     0.00162400    3.48137652    0.06784791       5
Ni    -0.01223839   -3.57646321   -0.01002855       6
Co     1.74265555    1.70855584   -0.03496771       7
Ni     1.70011669   -1.74603286   -0.04195211       8
Co    -0.01159425    1.76901961    1.72956866       9
Ni    -0.03260237   -1.73866932    1.72759651      10
Cr     1.77418304   -0.02070087   -1.77483669      11
Co    -1.77700289   -0.00228912    1.73155496      12
Ni    -1.73121627   -0.00190707   -1.74337114      13
Co     0.04757218    1.73476146   -1.74996446      14
Co    -0.03603714   -1.76303187   -1.78648985      15
Co    -1.76355369    1.73545227    0.01862382      16
Cr    -1.79463183   -1.73716535    0.00793589      17
Ni     1.72173243    0.00104931    1.71453677      18
