          18
Lattice="  24.8920   0.0000   0.0000   0.0000  24.8920   0.0000   0.0000   0.0000  24.8920 " ConfE="      -5929.5291" DelE="          0.0000"
Cr    -0.07208322   -3.54282538   -0.11164123       1
Ni     3.46038032    0.02514486   -0.09804308       2
Cr    -0.01401242    3.63595444   -0.04453999       3
Ni    -3.60573030    0.06480194   -0.08967697       4
Co     0.01384933   -0.01998771   -3.68559539       5
Cr    -0.06292465    0.11117576    3.31470602       6
Co    -0.02068325   -1.78565682   -1.84311719       7
Ni    -0.03186837   -1.74484820    1.61796012       8
Ni     1.69099544   -0.00230125   -1.80802581       9
Co     1.71930371    0.05648121    1.67308940      10
Ni    -1.84494021   -1.72817286   -0.09048969      11
Ni     1.71430333    1.84755044   -0.08338499      12
Ni    -1.79988536    1.82238897   -0.08734654      13
Ni    -1.78317121    0.04047747   -1.86319120      14
Co    -1.85604136    0.06972493    1.68271688      15
Ni    -0.05371576    1.81676952   -1.84112594      16
Co    -0.04745714    1.82604224    1.70872443      17
Cr     0.00000000    0.00000000    0.00000000      18
          18
Lattice="  24.8920   0.0000   0.0000   0.0000  24.8920   0.0000   0.0000   0.0000  24.8920 " ConfE="      -5928.8906" DelE="          0.6385"
Cr    -0.05914352   -3.51633885   -0.09404837       1
Ni     3.40063568    0.00479144   -0.11045165       2
Cr    -0.00768629    3.60149866   -0.04441252       3
Ni    -3.58948132    0.05708329   -0.09309570       4
Co     0.00561681   -0.00697790   -3.77262926       5
Cr    -0.08866000    0.13912807    3.45635299       6
Co    -0.03276909   -1.78489292   -1.97535191       7
Ni    -0.09951564   -1.74095815    1.79380904       8
Ni     1.73254440    0.05715779   -1.99515815       9
Co     1.73371668    0.08014810    1.76817330      10
Ni    -1.75482008   -1.68904381   -0.08462544      11
Ni     1.66446878    1.76520705   -0.09209871      12
Ni    -1.74243936    1.77095065   -0.08774848      13
Ni    -1.74955369    0.03152383   -1.87143641      14
Co    -1.83128502    0.06370934    1.69440507      15
Ni    -0.04333681    1.79453565   -1.86695083      16
Co    -0.04625851    1.76360224    1.72521459      17
Cr     0.77113721   -0.78968532   -0.08260713      18
          18
Lattice="  24.8920   0.0000   0.0000   0.0000  24.8920   0.0000   0.0000   0.0000  24.8920 " ConfE="      -5929.8894" DelE="         -0.3603"
Cr    -0.09433908   -3.57680053   -0.08289311       1
Ni     3.47970153    0.04612426   -0.10257445       2
Cr    -0.01618114    3.63465053   -0.03469310       3
Ni    -3.60453040    0.06734744   -0.09487777       4
Co     0.00656227   -0.00602729   -3.72463833       5
Cr    -0.06297466    0.13804650    3.38610256       6
Co    -0.04461131   -1.77832256   -1.88974922       7
Ni    -0.05860690   -1.66926843    1.61951818       8
Ni     1.65364040    0.04287994   -1.81819142       9
Co     1.71263005    0.06774761    1.67991107      10
Ni    -1.78676634   -1.68976753   -0.10239010      11
Ni     1.66917424    1.80441161   -0.07771018      12
Ni    -1.77817331    1.81213706   -0.08249818      13
Ni    -1.78012087    0.05796516   -1.87641947      14
Co    -1.84938476    0.08380007    1.68459896      15
Ni    -0.07016815    1.83552647   -1.84464261      16
Co    -0.05195930    1.80221705    1.72964986      17
Cr     1.66965793   -1.76078859   -0.13060217      18
