          18
Lattice="  24.8920   0.0000   0.0000   0.0000  24.8920   0.0000   0.0000   0.0000  24.8920 " ConfE="      -5950.0263" DelE="          0.0000"
Ni    -0.04727006   -3.44649623   -0.00869153       1
Ni    -0.01997556    0.06883161    3.53702214       2
Ni    -0.03583047    3.63671843    0.00133298       3
Co     3.38808867    0.03714608   -0.05015959       4
Cr    -0.05210919    0.03554767   -3.57173478       5
Cr    -3.60918436    0.08316983   -0.01643297       6
Ni     1.72686720    0.04869588    1.73055955       7
Cr    -0.09430938   -1.70655489   -1.75120168       8
Co     1.61573547   -0.04147593   -1.73377127       9
Co    -0.08283308   -1.66033021    1.67701515      10
Ni    -1.80107693    1.84709430   -0.00609208      11
Co    -1.85905878   -1.67856714   -0.04463374      12
Cr    -1.84186847    0.04436494   -1.80396265      13
Co    -0.06124937    1.78294575   -1.77853027      14
Co    -1.85309348    0.05975396    1.74994571      15
Cr     1.69307281    1.82040053   -0.00292234      16
Co    -0.04806827    1.84438160    1.75310216      17
Cr     0.00000000    0.00000000    0.00000000      18
          18
Lattice="  24.8920   0.0000   0.0000   0.0000  24.8920   0.0000   0.0000   0.0000  24.8920 " ConfE="      -5949.2092" DelE="          0.8171"
Ni    -0.07435368   -3.46504198    0.00045933       1
Ni    -0.03064541    0.08660438    3.59002327       2
Ni    -0.03471884    3.64212526    0.00569495       3
Co     3.35771941    0.03939160   -0.03746772       4
Cr    -0.09065547    0.05416938   -3.65517752       5
Cr    -3.58013106    0.06539754   -0.01977485       6
Ni     1.72161269    0.09522087    1.82344216       7
Cr    -0.15529893   -1.73988393   -1.89641907       8
Co     1.65811565    0.04008740   -1.86289165       9
Co    -0.12460644   -1.69240530    1.81694413      10
Ni    -1.78541849    1.83309911   -0.00061677      11
Co    -1.72295314   -1.60873481   -0.07472789      12
Cr    -1.75598707    0.06212765   -1.75529342      13
Co    -0.05548684    1.72477388   -1.74481707      14
Co    -1.80995455    0.05065415    1.72466062      15
Cr     1.65328695    1.75736137    0.00413123      16
Co    -0.03200567    1.81216049    1.72096267      17
Cr     0.97349339   -1.09668302   -0.03518202      18
          18
Lattice="  24.8920   0.0000   0.0000   0.0000  24.8920   0.0000   0.0000   0.0000  24.8920 " ConfE="      -5949.5850" DelE="          0.4412"
Ni    -0.07714387   -3.49615570   -0.00422603       1
Ni    -0.02659488    0.07828547    3.56410435       2
Ni    -0.03617629    3.63892951    0.00021264       3
Co     3.43148401    0.04422915   -0.03518869       4
Cr    -0.07557883    0.04471154   -3.61432532       5
Cr    -3.60005628    0.07396520   -0.01819458       6
Ni     1.69703675    0.08376910    1.74717562       7
Cr    -0.12240345   -1.67295896   -1.75814658       8
Co     1.60362648    0.00642728   -1.74614579       9
Co    -0.08020059   -1.65244898    1.67367229      10
Ni    -1.78122744    1.81928019   -0.00170368      11
Co    -1.76906820   -1.62242283   -0.07401633      12
Cr    -1.82105540    0.06709748   -1.79068798      13
Co    -0.07349239    1.74823098   -1.75941349      14
Co    -1.83814967    0.05594326    1.74446582      15
Cr     1.64599935    1.74054409   -0.00350568      16
Co    -0.04374188    1.83795663    1.73734073      17
Cr     1.57031672   -1.57411153   -0.01756999      18
