          18
Lattice="  24.8920   0.0000   0.0000   0.0000  24.8920   0.0000   0.0000   0.0000  24.8920 " ConfE="      -5934.6514" DelE="          0.0000"
Ni     0.02366198    0.06351412    3.55341883       1
Ni    -0.03120058   -3.38457781    0.03629207       2
Ni     3.57789022    0.09174508   -0.00948065       3
Co    -0.04208836    3.64665129   -0.01410970       4
Co    -3.54257391    0.09480104    0.02848072       5
Cr     0.01347557    0.00762315   -3.57390285       6
Ni     1.74800637   -0.01752952    1.78276073       7
Cr     1.79866463   -1.68185899   -0.05686169       8
Ni     1.77622347    1.84098353    0.00444426       9
Ni     0.00822178    1.85290547    1.77364020      10
Cr    -1.73397119   -0.03572915    1.81017161      11
Cr    -1.84088662   -1.63532824    0.03761625      12
Cr     1.85017566    0.05094296   -1.81109852      13
Cr    -0.02921321   -1.71618827   -1.84891124      14
Cr    -0.02773854    1.87499179   -1.74393464      15
Cr    -1.76525767    1.76591330    0.02107975      16
Cr    -1.85036205    0.02088099   -1.76810883      17
Co     0.00000000    0.00000000    0.00000000      18
          18
Lattice="  24.8920   0.0000   0.0000   0.0000  24.8920   0.0000   0.0000   0.0000  24.8920 " ConfE="      -5933.2844" DelE="          1.3670"
Ni     0.00517550    0.08615146    3.48798163       1
Ni    -0.01543644   -3.45703475   -0.01584898       2
Ni     3.64831787    0.12214746   -0.01788575       3
Co    -0.01826204    3.59333432   -0.04410615       4
Co    -3.59638383    0.10850611    0.01869867       5
Cr    -0.00264348    0.01616090   -3.52291993       6
Ni     1.83537235    0.11351667    1.75191963       7
Cr     1.87603709   -1.59325889   -0.17697699       8
Ni     1.89519940    1.89336155    0.04216205       9
Ni     0.00568040    1.85517977    1.71642424      10
Cr    -1.77614407    0.07324381    1.62143370      11
Cr    -1.94336576   -1.73371338   -0.03691101      12
Cr     1.93701763    0.17755833   -1.83252262      13
Cr    -0.02053471   -1.66701100   -1.74881724      14
Cr    -0.08107111    0.98114427   -0.81557314      15
Cr    -1.92934723    1.97821618    0.10295565      16
Cr    -1.96815082   -0.02476274   -1.70625724      17
Co     0.00969729   -1.20410784    1.00780079      18
          18
Lattice="  24.8920   0.0000   0.0000   0.0000  24.8920   0.0000   0.0000   0.0000  24.8920 " ConfE="      -5934.1608" DelE="          0.4906"
Ni    -0.02784486    0.14291381    3.52218077       1
Ni    -0.01686694   -3.46926200    0.00311014       2
Ni     3.58833974    0.11099331   -0.02571765       3
Co    -0.02127161    3.60259578   -0.12587177       4
Co    -3.52898365    0.11281455    0.00896540       5
Cr     0.01181267    0.08692173   -3.39823265       6
Ni     1.76657505    0.09246168    1.73673322       7
Cr     1.80301382   -1.67440319   -0.07120920       8
Ni     1.78896367    1.88106506   -0.06371104       9
Ni    -0.01471073    1.87352197    1.71845139      10
Cr    -1.76247212    0.06128748    1.66455292      11
Cr    -1.86706894   -1.73146791    0.01289525      12
Cr     1.90585414    0.10422303   -1.83120897      13
Cr    -0.03131804   -1.76554938   -1.80886176      14
Cr     0.03494175    0.16602904   -0.19265694      15
Cr    -1.72184479    1.89879064   -0.19263656      16
Cr    -1.89313860    0.01032733   -1.73102140      17
Co    -0.00712823   -1.62929169    1.68798740      18
