          18
Lattice="  24.8920   0.0000   0.0000   0.0000  24.8920   0.0000   0.0000   0.0000  24.8920 " ConfE="      -5925.6169" DelE="          0.0000"
Ni    -0.06151450    3.47090372    0.00002361       1
Ni    -0.02837180    0.00370399   -3.47498920       2
Ni    -3.56851819   -0.05035235    0.01599652       3
Cr     0.00290831   -0.01926441    3.55925161       4
Co    -0.02199321   -3.68111580    0.02756843       5
Co     3.52582510   -0.04511915    0.01189086       6
Ni    -1.79182891    1.72599012   -0.01068657       7
Co    -1.78227933   -0.02472333   -1.75875606       8
Ni    -1.79459793   -0.05004788    1.81774419       9
Cr     1.68726124    0.01602934   -1.66679928      10
Cr     1.69961789    1.78440794   -0.02176818      11
Ni     0.00302793   -1.82092311    1.81694670      12
Ni     1.74761668   -1.85361534    0.02005490      13
Co    -1.79149633   -1.84053451    0.05378075      14
Cr    -0.01263209    1.69054079    1.78744166      15
Cr    -0.12863796   -1.84416161   -1.66503733      16
Co     1.80015922   -0.04342090    1.75789505      17
Co     0.00000000    0.00000000    0.00000000      18
          18
Lattice="  24.8920   0.0000   0.0000   0.0000  24.8920   0.0000   0.0000   0.0000  24.8920 " ConfE="      -5922.3329" DelE="          3.2840"
Ni    -0.07031568    3.54656791    0.04188356       1
Ni    -0.07020852    0.07889597   -3.50787422       2
Ni    -3.53285847    0.03261347   -0.02279620       3
Cr    -0.00642280   -0.04623726    3.59280630       4
Co     0.00783602   -3.79558317    0.16342471       5
Co     3.52619095   -0.06094509    0.02571229       6
Ni    -0.51530732    1.24062538   -0.24436523       7
Co    -2.11654430    0.76523182   -1.91328083       8
Ni    -1.72788640    0.01136446    1.73212593       9
Cr     1.56997873    0.06564606   -1.58991529      10
Cr     1.80506955    1.83359369    0.04614995      11
Ni     0.00548186   -1.79698852    1.79691173      12
Ni     1.74069295   -1.85371591    0.05543231      13
Co    -1.87525386   -2.01104016    0.21991255      14
Cr    -0.02030692    1.78443715    1.95589431      15
Cr     0.37185223   -2.58486864   -1.70554908      16
Co     1.73999338    0.01056285    1.72868774      17
Co    -0.68990575   -0.83988295   -1.31554830      18
          18
Lattice="  24.8920   0.0000   0.0000   0.0000  24.8920   0.0000   0.0000   0.0000  24.8920 " ConfE="      -5925.5228" DelE="          0.0941"
Ni    -0.06030002    3.47843341   -0.00015977       1
Ni    -0.02268016    0.00136150   -3.46743831       2
Ni    -3.56223790   -0.04811481    0.01888228       3
Cr    -0.00211076   -0.01005217    3.56015344       4
Co    -0.02129065   -3.67650814    0.02464930       5
Co     3.52046241   -0.03964161    0.01584416       6
Ni    -0.01389633   -0.00689045   -0.00199872       7
Co    -1.77159395    1.73790489   -0.02184645       8
Ni    -1.79498760   -0.05278707    1.81729143       9
Cr     1.73936810    0.01463257   -1.69339844      10
Cr     1.70076539    1.80076966   -0.02722831      11
Ni     0.00312801   -1.82377541    1.81633524      12
Ni     1.74835477   -1.84955753    0.01414068      13
Co    -1.79608358   -1.85305646    0.05012572      14
Cr    -0.04231916    1.71561070    1.78784974      15
Cr    -0.12369665   -1.87531852   -1.68630301      16
Co     1.79552328   -0.03255092    1.75449798      17
Co    -1.78916172   -0.01679217   -1.75625153      18
