          19
Lattice="  24.8920   0.0000   0.0000   0.0000  24.8920   0.0000   0.0000   0.0000  24.8920 " ConfE="      -5949.2514" DelE="          0.0000"
Co     0.05982702   -3.46712274    0.05885181       1
Ni     2.58113857   -1.74086888    0.88876442       2
Co    -0.02067788   -0.01487087   -3.54149831       3
Cr     3.49219249    0.21427161   -0.02503901       4
Cr    -3.57777892   -0.03980980   -0.01277044       5
Co    -0.00683519   -0.01134038    3.54817951       6
Cr    -0.00195626    3.52781618   -0.02664424       7
Co    -0.02109416   -1.79181340   -1.70256518       8
Co     1.75354791   -0.01525508   -1.73867543       9
Cr    -1.77992398   -1.77375167   -0.04589914      10
Cr     0.02608087   -1.77537384    1.72132428      11
Co    -1.79273693   -0.00121874   -1.77816517      12
Co    -0.00898892    1.78517007   -1.79886239      13
Co     1.73507218    1.82517758   -0.01479068      14
Ni    -1.77571146   -0.00913088    1.76165908      15
Cr     1.68216204    0.21884206    1.82896209      16
Ni    -1.80183332    1.78227179   -0.01962793      17
Co    -0.03727420    1.80570784    1.79721483      18
Ni     0.00000000    0.00000000    0.00000000      19
          19
Lattice="  24.8920   0.0000   0.0000   0.0000  24.8920   0.0000   0.0000   0.0000  24.8920 " ConfE="      -5948.7101" DelE="          0.5413"
Co     0.06322694   -3.43242716    0.05448773       1
Ni     2.81297543   -1.70191123    1.18595083       2
Co    -0.05200671   -0.01278761   -3.59263738       3
Cr     3.43327822    0.19759340   -0.05155719       4
Cr    -3.57993000   -0.04571105   -0.00640017       5
Co    -0.02600660   -0.00016380    3.60350721       6
Cr     0.00861314    3.53072681   -0.02414870       7
Co    -0.05475877   -1.81930331   -1.86380056       8
Co     1.79332867    0.05237591   -1.97934592       9
Cr    -1.68152571   -1.71172697   -0.02771998      10
Cr    -0.04866693   -1.80011733    1.88578920      11
Co    -1.75134751   -0.02332700   -1.74118966      12
Co    -0.01700872    1.75791368   -1.79696762      13
Co     1.68617858    1.75520640   -0.03044547      14
Ni    -1.75909557   -0.00220943    1.77061264      15
Cr     1.68386259    0.26569768    1.98271773      16
Ni    -1.75233145    1.74224877   -0.01040571      17
Co    -0.02986911    1.77995089    1.80079345      18
Ni     0.78317196   -0.67231372    0.02663976      19
          19
Lattice="  24.8920   0.0000   0.0000   0.0000  24.8920   0.0000   0.0000   0.0000  24.8920 " ConfE="      -5949.2232" DelE="          0.0282"
Co     0.05197858   -3.42743650    0.03009380       1
Ni     3.43579222   -1.75696867    1.73910990       2
Co    -0.06162731   -0.01263468   -3.61660459       3
Cr     3.38707594    0.00591962    0.00393286       4
Cr    -3.57697580   -0.04941003   -0.01433196       5
Co    -0.02830469    0.00046410    3.61686425       6
Cr     0.04902172    3.49228722   -0.02380486       7
Co    -0.07236542   -1.82108289   -1.91837299       8
Co     1.77536991    0.03664159   -1.99512104       9
Cr    -1.67421535   -1.71118434   -0.04154094      10
Cr    -0.08408242   -1.77834804    1.92635669      11
Co    -1.75329217   -0.02766808   -1.75218773      12
Co    -0.01091712    1.73766455   -1.79601668      13
Co     1.69733652    1.70142564   -0.02978869      14
Ni    -1.76267434   -0.00422095    1.76212031      15
Cr     1.73310079    0.14077253    1.93344670      16
Ni    -1.74204206    1.73276070   -0.01355756      17
Co     0.00816336    1.72170021    1.79195188      18
Ni     0.86255406   -0.84551874    0.01746091      19
