          18
Lattice="  24.8920   0.0000   0.0000   0.0000  24.8920   0.0000   0.0000   0.0000  24.8920 " ConfE="      -5924.8512" DelE="          0.0000"
Cr    -0.01264951    3.38077512    0.05979715       1
Cr     3.47724864    0.01353056   -0.02992409       2
Ni    -0.04329987   -3.59991876    0.06758089       3
Co    -0.07887017   -0.06319903   -3.52229589       4
Co    -0.07259521   -0.10642515    3.57528891       5
Co    -3.64591071   -0.05316526    0.01791005       6
Ni    -0.07803912    1.71312430   -1.74574264       7
Ni     1.74830381   -1.83097855    0.01480132       8
Cr     1.70512202    0.04074096   -1.73640519       9
Co     1.69927623   -0.00272775    1.70407370      10
Cr    -0.04102315    1.61404496    1.81230487      11
Ni    -1.82279444   -1.81201465    0.06919596      12
Ni    -1.84549733   -0.05430424   -1.74579423      13
Co    -1.85336490    1.70399518    0.05394311      14
Co    -0.04667834   -1.80265494   -1.72433022      15
Cr    -0.02607869   -1.71533065    1.80550297      16
Cr    -1.83904486   -0.01162185    1.77634309      17
Cr     0.00000000    0.00000000    0.00000000      18
          18
Lattice="  24.8920   0.0000   0.0000   0.0000  24.8920   0.0000   0.0000   0.0000  24.8920 " ConfE="      -5924.3431" DelE="          0.5081"
Cr    -0.04373896    3.43925459    0.04011861       1
Cr     3.56081110   -0.00356961    0.00008004       2
Ni    -0.03348143   -3.57804158    0.06960107       3
Co    -0.13681257   -0.06600451   -3.60636520       4
Co    -0.08696609   -0.13250737    3.65716931       5
Co    -3.64874355   -0.04235925    0.01408469       6
Ni    -0.14635962    1.70897343   -1.83746759       7
Ni     1.73890304   -1.72234967    0.00795487       8
Cr     1.63425437   -0.01771791   -1.90733409       9
Co     1.78901007   -0.09525430    1.90237283      10
Cr    -0.05639929    1.59605538    1.96068122      11
Ni    -1.79760478   -1.78537369    0.06799893      12
Ni    -1.83019687   -0.05105610   -1.73374806      13
Co    -1.73704011    1.67171031    0.07966873      14
Co    -0.03252699   -1.73658943   -1.70565927      15
Cr    -0.00156909   -1.56670063    1.72754524      16
Cr    -1.77377530    0.00774746    1.71639400      17
Cr     0.96295847    0.88495710    0.06115075      18
          18
Lattice="  24.8920   0.0000   0.0000   0.0000  24.8920   0.0000   0.0000   0.0000  24.8920 " ConfE="      -5924.9373" DelE="         -0.0862"
Cr    -0.09338105    3.48082819    0.05030417       1
Cr     3.56434874   -0.06049469   -0.02326417       2
Ni    -0.04736604   -3.60356097    0.07062989       3
Co    -0.11101609   -0.05539854   -3.56156471       4
Co    -0.08129036   -0.11088405    3.61687531       5
Co    -3.67200498   -0.05616174    0.01546649       6
Ni    -0.09823135    1.67462874   -1.71339433       7
Ni     1.72334235   -1.78719958    0.01438766       8
Cr     1.63734232   -0.02380773   -1.75302243       9
Co     1.67214041   -0.04381661    1.72444767      10
Cr    -0.04998120    1.55262950    1.77222699      11
Ni    -1.80714868   -1.79274678    0.07329968      12
Ni    -1.84321631   -0.05764059   -1.73284132      13
Co    -1.79602094    1.67045300    0.08144079      14
Co    -0.04388715   -1.76862111   -1.71207545      15
Cr    -0.05074403   -1.66400717    1.78028741      16
Cr    -1.80963707   -0.01002922    1.74663729      17
Cr     1.71370786    1.64042595   -0.00076345      18
