          18
Lattice="  24.8920   0.0000   0.0000   0.0000  24.8920   0.0000   0.0000   0.0000  24.8920 " ConfE="      -5944.4863" DelE="          0.0000"
Ni     0.02062527    3.47391659   -0.02957453       1
Cr     3.49940723    0.04932925    0.01205085       2
Ni    -0.02607672   -3.60715113   -0.00297775       3
Ni    -3.59185304   -0.03920171   -0.01287677       4
Ni    -0.03987217   -0.05908153   -3.56976001       5
Co    -0.04329330   -0.02531221    3.52302744       6
Ni     0.00007235    1.73343440   -1.77783493       7
Cr     0.02195965    1.73879519    1.74548946       8
Cr     1.70968069    0.01075506   -1.73639756       9
Ni     1.73223422   -0.01629924    1.75246677      10
Cr    -1.79362274    1.70873398   -0.02269855      11
Cr     1.67882465   -1.78942520   -0.07099013      12
Cr    -1.78762507   -1.77960791   -0.04316004      13
Co    -1.81107247   -0.00092188   -1.74185272      14
Cr    -1.79164294   -0.00233763    1.72211414      15
Co    -0.03459915   -1.81463283   -1.74005117      16
Ni    -0.03712281   -1.81579897    1.76579732      17
Co     0.00000000    0.00000000    0.00000000      18
          18
Lattice="  24.8920   0.0000   0.0000   0.0000  24.8920   0.0000   0.0000   0.0000  24.8920 " ConfE="      -5943.4951" DelE="          0.9912"
Ni     0.06546027    3.47653911   -0.04212821       1
Cr     3.47159594    0.03990864    0.03129062       2
Ni    -0.01526215   -3.63691669    0.00648738       3
Ni    -3.56293501   -0.03631161   -0.01684799       4
Ni    -0.08243323   -0.06190431   -3.57695479       5
Co    -0.05641796   -0.03787839    3.56181153       6
Ni    -0.05281328    1.84321877   -1.94352232       7
Cr     0.02447738    1.74810348    1.83170880       8
Cr     1.66417856   -0.09823108   -1.90689925       9
Ni     1.77454606   -0.08715525    1.90751669      10
Cr    -1.71072158    1.81651304    0.03047487      11
Cr     1.59252714   -1.70092527   -0.07601818      12
Cr    -1.80397879   -1.90804753    0.02530509      13
Co    -1.32798008   -0.03492527   -1.13200074      14
Cr    -1.72326009    0.01096747    1.64721127      15
Co     0.00309025   -1.89318678   -1.75878790      16
Ni    -0.03740437   -1.78751022    1.74192123      17
Co     0.96322652    0.91128378   -0.05531110      18
          18
Lattice="  24.8920   0.0000   0.0000   0.0000  24.8920   0.0000   0.0000   0.0000  24.8920 " ConfE="      -5944.7048" DelE="         -0.2185"
Ni    -0.02348042    3.49498955   -0.03665408       1
Cr     3.52799104   -0.01104006    0.01686558       2
Ni    -0.03522640   -3.60268583   -0.00478120       3
Ni    -3.54376190   -0.04329814   -0.05874318       4
Ni    -0.06438925   -0.07081621   -3.56740187       5
Co    -0.05141039   -0.03183104    3.53252650       6
Ni    -0.06304386    1.69374295   -1.79622909       7
Cr     0.00075963    1.73994782    1.75927474       8
Cr     1.71837806   -0.03729206   -1.78886424       9
Ni     1.72013024   -0.04561879    1.77341890      10
Cr    -1.77643671    1.65673555   -0.05417418      11
Cr     1.64437789   -1.76572848   -0.08076706      12
Cr    -1.75684635   -1.73919136   -0.07802646      13
Co    -0.10293632   -0.04555749   -0.02922635      14
Cr    -1.80934248   -0.00943537    1.75697896      15
Co    -0.08715337   -1.80141123   -1.74262889      16
Ni    -0.04704320   -1.82071855    1.77500963      17
Co     1.74518942    1.68481718   -0.03125476      18
