          18
Lattice="  24.8920   0.0000   0.0000   0.0000  24.8920   0.0000   0.0000   0.0000  24.8920 " ConfE="      -5938.3532" DelE="          0.0000"
Ni    -3.52091337    0.01166596   -0.02528690       1
Ni    -0.08242472    3.50389593   -0.05841680       2
Ni     3.46801223   -0.05924880   -0.06724739       3
Ni    -0.04291751   -3.59748447   -0.02643727       4
Cr    -0.02060655   -0.01752459   -3.66001787       5
Co    -0.05504509   -0.02935750    3.47581236       6
Ni    -1.76016039    0.01965143   -1.76972256       7
Cr    -1.72684614    0.03054664    1.71781029       8
Ni    -0.05546839    1.75995674   -1.82544322       9
Co    -0.12190685    1.70913686    1.65838067      10
Ni    -1.79606574   -1.79698754   -0.03803957      11
Co     1.74045073    1.74792769   -0.07312907      12
Cr     1.71588995   -1.79479060   -0.06646362      13
Co    -0.02041694   -1.78678455   -1.81312051      14
Ni    -0.03394346   -1.80944013    1.74869899      15
Cr     1.68150212    0.00781015   -1.83868937      16
Co     1.71801175   -0.01313923    1.73706907      17
Cr     0.00000000    0.00000000    0.00000000      18
          18
Lattice="  24.8920   0.0000   0.0000   0.0000  24.8920   0.0000   0.0000   0.0000  24.8920 " ConfE="      -5937.1734" DelE="          1.1798"
Ni    -3.50920895   -0.01372447   -0.02807775       1
Ni    -0.08377459    3.54509690   -0.06578154       2
Ni     3.39981668   -0.03182052   -0.06584749       3
Ni    -0.06292786   -3.64440642   -0.03603323       4
Cr     0.01849529   -0.02313341   -3.68628060       5
Co     0.02402890   -0.02232841    3.44010367       6
Ni    -1.73642924   -0.02433074   -1.84266655       7
Cr    -1.67662222   -0.09233599    1.85293316       8
Ni    -0.04622843    1.79236762   -1.86662521       9
Co     0.02705655    1.89797148    1.83863909      10
Ni    -1.74550884   -1.74231694   -0.02405566      11
Co     1.70667729    1.85299011   -0.11232210      12
Cr     1.67776962   -1.86945489   -0.09853496      13
Co    -0.00133509   -1.77089745   -1.76916045      14
Ni    -0.10006896   -1.94169134    1.77593229      15
Cr     1.51609242   -0.00084348   -1.67670606      16
Co     1.09068805   -0.06863053    1.07859402      17
Cr    -1.21203352    1.18616176    0.13762378      18
          18
Lattice="  24.8920   0.0000   0.0000   0.0000  24.8920   0.0000   0.0000   0.0000  24.8920 " ConfE="      -5938.0692" DelE="          0.2840"
Ni    -3.56762253   -0.01309518   -0.03061748       1
Ni    -0.03469478    3.54263992   -0.07149038       2
Ni     3.48340825   -0.05872220   -0.07076233       3
Ni    -0.04362772   -3.60142043   -0.02793709       4
Cr    -0.01197257   -0.01987738   -3.66709859       5
Co    -0.05415516   -0.03507043    3.52057493       6
Ni    -1.73159035    0.00467802   -1.76212283       7
Cr    -1.72068640    0.01986688    1.73319376       8
Ni    -0.03509445    1.74846858   -1.82950510       9
Co    -0.08681853    1.68715645    1.66685017      10
Ni    -1.76999724   -1.74441327   -0.02285449      11
Co     1.69068170    1.69788599   -0.07959437      12
Cr     1.66301619   -1.72370489   -0.06335862      13
Co     0.01153359   -1.76186493   -1.78152541      14
Ni    -0.03284174   -1.77391297    1.73042130      15
Cr     1.67197704    0.00552043   -1.80441010      16
Co     1.69174563   -0.02379477    1.70244354      17
Cr    -1.75927993    1.72887126    0.03074906      18
