          18
Lattice="  24.8920   0.0000   0.0000   0.0000  24.8920   0.0000   0.0000   0.0000  24.8920 " ConfE="      -5929.2790" DelE="          0.0000"
Ni     0.03928779   -0.03122882   -3.49879906       1
Co    -0.00190998    3.49430436    0.01585590       2
Cr    -3.54491184   -0.07458244   -0.02681046       3
Co     3.57016219   -0.08768734   -0.03579259       4
Co    -0.01992103   -3.60920641    0.03705265       5
Cr    -0.02536610    0.00381986    3.55963625       6
Ni    -1.73404472   -0.01533283   -1.74901872       7
Co    -1.75542689    1.71226539    0.03066952       8
Co     1.74133699    1.71430505   -0.07082376       9
Ni     0.05060397   -1.84820791   -1.76441119      10
Cr     1.77460774    0.05302451   -1.70166327      11
Ni     1.76571348   -0.00175561    1.75984494      12
Cr     0.01274866    1.88674933    1.74898179      13
Cr    -1.74140085   -1.86396113   -0.00382061      14
Cr    -1.76934212    0.00661529    1.76896350      15
Co     1.80086275   -1.83542440   -0.01618759      16
Co    -0.01601833   -1.78016466    1.77069911      17
Ni     0.00000000    0.00000000    0.00000000      18
          18
Lattice="  24.8920   0.0000   0.0000   0.0000  24.8920   0.0000   0.0000   0.0000  24.8920 " ConfE="      -5928.5555" DelE="          0.7235"
Ni     0.01863714   -0.05083880   -3.46613708       1
Co    -0.00163668    3.46791937   -0.00453703       2
Cr    -3.62869818   -0.10804491   -0.00088309       3
Co     3.62084892   -0.08934811   -0.00881451       4
Co    -0.01307006   -3.61605125    0.03291373       5
Cr    -0.02550235    0.00921341    3.56730395       6
Ni    -1.92952689   -0.11930814   -1.78197603       7
Co    -1.88648803    1.69749243    0.04439123       8
Co     1.92170362    1.79241821    0.04314677       9
Ni     0.03676285   -1.79619063   -1.72974772      10
Cr     1.98986536   -0.10751361   -1.69947893      11
Ni     1.77149285    0.00382842    1.72151551      12
Cr     0.03022322    1.79892138    1.60608757      13
Cr    -1.70967886   -1.81234376    0.01078460      14
Cr    -1.69963884    0.01494960    1.66524330      15
Co     1.80776663   -1.80399539   -0.03886977      16
Co    -0.00568957   -1.69449322    1.69074218      17
Ni     0.04992946    0.87261066   -1.01469325      18
          18
Lattice="  24.8920   0.0000   0.0000   0.0000  24.8920   0.0000   0.0000   0.0000  24.8920 " ConfE="      -5929.2102" DelE="          0.0687"
Ni     0.03225726   -0.06971959   -3.53255581       1
Co    -0.00059259    3.55628649    0.02319201       2
Cr    -3.57985531   -0.09435960   -0.01339508       3
Co     3.59799134   -0.08877096   -0.02742725       4
Co    -0.01621154   -3.63036448    0.03523959       5
Cr    -0.03071739    0.00322024    3.58288546       6
Ni    -1.71387020   -0.07837680   -1.68074738       7
Co    -1.71040221    1.66052210    0.06880188       8
Co     1.73579392    1.68740274   -0.02768507       9
Ni     0.04758288   -1.83267612   -1.74249422      10
Cr     1.77045765   -0.01550483   -1.63192805      11
Ni     1.72810676   -0.00064612    1.73100131      12
Cr     0.00542754    1.83108687    1.70295264      13
Cr    -1.71401942   -1.85821312    0.03632119      14
Cr    -1.70461770   -0.00141645    1.71813003      15
Co     1.78562949   -1.80540472   -0.02939039      16
Co    -0.02230071   -1.72989124    1.71258918      17
Ni     0.00312871    1.71846469   -1.74884128      18
