          18
Lattice="  24.8920   0.0000   0.0000   0.0000  24.8920   0.0000   0.0000   0.0000  24.8920 " ConfE="      -5938.1028" DelE="          0.0000"
Ni    -0.02355117    3.46803302   -0.02944640       1
Cr     3.37776809    0.00221584    0.00336343       2
Co    -0.04079753   -0.10098798   -3.57795719       3
Cr    -0.04848489   -0.11108980    3.60723715       4
Co    -3.65298865   -0.01791942   -0.01323427       5
Co    -0.04922090   -3.58525139    0.00754521       6
Ni     1.69898218   -0.01760992   -1.76002883       7
Ni    -0.06786024    1.71933310   -1.81017057       8
Ni    -0.05210568    1.71059961    1.78497604       9
Cr     1.71432032   -0.03426607    1.84817213      10
Ni    -1.87304659    1.71184812   -0.01987481      11
Ni    -1.84120369   -0.04982402   -1.79076220      12
Ni    -1.81922792   -0.04514464    1.77171107      13
Ni    -1.81720353   -1.79982155    0.00009896      14
Cr     1.71032010   -1.88699997    0.04858201      15
Cr    -0.04212769   -1.79677027   -1.79226964      16
Co    -0.01563479   -1.81259249    1.76318824      17
Ni     0.00000000    0.00000000    0.00000000      18
          18
Lattice="  24.8920   0.0000   0.0000   0.0000  24.8920   0.0000   0.0000   0.0000  24.8920 " ConfE="      -5933.1128" DelE="          4.9900"
Ni    -0.03621959    3.45580734   -0.03628944       1
Cr     3.44865505   -0.02035282   -0.04263145       2
Co    -0.04508935   -0.10323212   -3.61110711       3
Cr     0.58929241    0.74442311    4.37392128       4
Co    -3.72215405   -0.00412263   -0.06302642       5
Co    -0.10883775   -3.69728536   -0.10435331       6
Ni     1.64638177   -0.01748088   -1.69696776       7
Ni    -0.08356854    1.68892906   -1.79820906       8
Ni     0.00208091    1.57360947    1.75420077       9
Cr     1.72409322   -0.07759534    1.76978568      10
Ni    -1.86070920    1.68684070   -0.04966426      11
Ni    -1.84553688   -0.06349415   -1.80811303      12
Ni    -1.93919337   -0.04600620    1.62628702      13
Ni    -1.88186173   -1.81942067   -0.06749763      14
Cr     1.77754099   -1.91300351   -0.06175311      15
Cr    -0.06101167   -1.77724729   -1.79442717      16
Co    -0.41421183   -0.63440684    3.23547923      17
Ni    -0.01056010   -1.91359118    1.43097663      18
          18
Lattice="  24.8920   0.0000   0.0000   0.0000  24.8920   0.0000   0.0000   0.0000  24.8920 " ConfE="      -5934.1033" DelE="          3.9995"
Ni    -0.05968014    3.48721798   -0.05536479       1
Cr     3.41365838    0.00397372   -0.00052280       2
Co    -0.04833853   -0.10408281   -3.59801722       3
Cr     1.36384152   -0.38036519    5.12249048       4
Co    -3.69613199   -0.01961491   -0.03686943       5
Co    -0.09109158   -3.63304337   -0.01958975       6
Ni     1.63016732   -0.00880442   -1.67045068       7
Ni    -0.09896578    1.69826446   -1.79387858       8
Ni    -0.04559501    1.66195722    1.67524954       9
Cr     1.65819142   -0.04920920    1.75763691      10
Ni    -1.88604789    1.68513627   -0.04634552      11
Ni    -1.84038725   -0.06656487   -1.79190666      12
Ni    -1.85145135   -0.05711965    1.70846516      13
Ni    -1.82773811   -1.80774714   -0.03054245      14
Cr     1.68392236   -1.87392350    0.03471812      15
Cr    -0.06007894   -1.77730301   -1.78505978      16
Co    -0.13348388   -0.07314692    3.47827899      17
Ni    -0.08371794   -1.84118263    1.71243322      18
