          18
Lattice="  24.8920   0.0000   0.0000   0.0000  24.8920   0.0000   0.0000   0.0000  24.8920 " ConfE="      -5923.6772" DelE="          0.0000"
Ni    -0.03649394    0.10327847    3.50786992       1
Ni    -0.05480145    3.60243163   -0.04591444       2
Ni    -0.07526606    0.10846316   -3.61630954       3
Ni    -0.03452815   -3.39667545   -0.01467196       4
Co     3.49244533    0.10115915   -0.02419047       5
Cr    -3.67773296    0.06480422   -0.06756546       6
Ni    -0.01774579    1.79100618    1.74933633       7
Ni     1.73621117    1.79525431    0.00982145       8
Ni    -1.83225545    1.81844262   -0.03741231       9
Ni    -1.84486965    0.08682474   -1.81185580      10
Co    -0.01900933   -1.60350392    1.69871785      11
Ni     1.71753506    0.10348199   -1.83671815      12
Cr     1.82230088   -1.64053071    0.02256365      13
Ni    -0.05553152    1.85122832   -1.82063198      14
Co    -1.87401488    0.04745667    1.69020067      15
Cr    -1.91901086   -1.63322817    0.00667211      16
Co    -0.06347665   -1.64871559   -1.74567720      17
Cr     0.00000000    0.00000000    0.00000000      18
          18
Lattice="  24.8920   0.0000   0.0000   0.0000  24.8920   0.0000   0.0000   0.0000  24.8920 " ConfE="      -5923.0743" DelE="          0.6029"
Ni    -0.03044285    0.09658642    3.45813292       1
Ni    -0.08073132    3.66072687   -0.06505477       2
Ni    -0.06684707    0.11676306   -3.61875034       3
Ni    -0.03492931   -3.43981772   -0.01114443       4
Co     3.44180789    0.13667911   -0.00969806       5
Cr    -3.64615127    0.05717295   -0.05870745       6
Ni    -0.07192118    1.90841537    1.74661347       7
Ni     1.73798958    1.95459492   -0.08413637       8
Ni    -1.81157803    1.82133928   -0.04215520       9
Ni    -1.81090829    0.10007183   -1.78523801      10
Co    -0.08404224   -1.78146970    1.79021894      11
Ni     1.69612389    0.12347454   -1.78356886      12
Cr     1.85567611   -1.78624749   -0.03978659      13
Ni    -0.05778307    1.87261496   -1.82244585      14
Co    -1.79185425    0.03344127    1.65646912      15
Cr    -1.81875801   -1.57404159    0.01654667      16
Co    -0.04752486   -1.60001392   -1.63481263      17
Cr     0.79281453   -0.01015131    0.74250818      18
          18
Lattice="  24.8920   0.0000   0.0000   0.0000  24.8920   0.0000   0.0000   0.0000  24.8920 " ConfE="      -5923.8162" DelE="         -0.1390"
Ni    -0.06270574    0.09961904    3.53397691       1
Ni    -0.06687572    3.61750427   -0.05518443       2
Ni    -0.08034595    0.11061935   -3.63150209       3
Ni    -0.06477963   -3.42568948   -0.02829578       4
Co     3.54490594    0.10029476   -0.05158567       5
Cr    -3.68134664    0.06132186   -0.07296675       6
Ni    -0.04700381    1.77716916    1.72293465       7
Ni     1.70775692    1.79327539   -0.02529440       8
Ni    -1.83289595    1.80885861   -0.04907693       9
Ni    -1.83532113    0.08700494   -1.80074604      10
Co    -0.05627661   -1.59434859    1.65864908      11
Ni     1.68910811    0.09668960   -1.79412406      12
Cr     1.73360174   -1.66192466   -0.06128201      13
Ni    -0.06913219    1.86010488   -1.83602820      14
Co    -1.85219060    0.03314736    1.65461642      15
Cr    -1.90772541   -1.59850388    0.00508941      16
Co    -0.08017480   -1.63814404   -1.72043559      17
Cr     1.72362777   -0.01554418    1.67883429      18
