          18
Lattice="  24.8920   0.0000   0.0000   0.0000  24.8920   0.0000   0.0000   0.0000  24.8920 " ConfE="      -5949.8161" DelE="          0.0000"
Cr     0.06352259    0.02237729   -3.59300892       1
Cr     3.48348630    0.01353495   -0.09905380       2
Ni    -0.00343105   -3.53700514    0.00679172       3
Co     0.03303138    3.55790704    0.02680765       4
Co    -0.02768178    0.03783009    3.56302950       5
Cr    -3.54372004   -0.02025041    0.01048898       6
Ni     1.76650969   -1.72445621   -0.03847386       7
Ni     0.02251870   -1.71909771   -1.77749126       8
Ni     0.05408092    1.74359006   -1.77122902       9
Co     1.82148767    1.74036222   -0.02040119      10
Ni     1.74992294   -0.00489692    1.80415523      11
Ni    -1.76085440    1.77330417    0.00428053      12
Co    -1.81334980    0.02087056   -1.80349534      13
Cr    -0.05425404   -1.77972522    1.77097921      14
Co    -1.80216745   -1.74129881    0.00810971      15
Cr     0.00520960    1.81274884    1.76513524      16
Co    -1.78200989    0.02186869    1.80858429      17
Ni     0.00000000    0.00000000    0.00000000      18
          18
Lattice="  24.8920   0.0000   0.0000   0.0000  24.8920   0.0000   0.0000   0.0000  24.8920 " ConfE="      -5949.1176" DelE="          0.6984"
Cr     0.10957694    0.01090293   -3.48112508       1
Cr     3.42702459   -0.01304597   -0.13397014       2
Ni    -0.02577654   -3.61726943    0.01933080       3
Co    -0.00533167    3.62147623    0.02956047       4
Co    -0.01564635    0.03770343    3.56633194       5
Cr    -3.56902514   -0.01487603   -0.00098802       6
Ni     1.77740653   -1.91685802    0.03637739       7
Ni    -0.01187358   -1.86808284   -1.77548139       8
Ni    -0.01006463    1.91767015   -1.80713395       9
Co     1.84024086    1.97850236    0.06611740      10
Ni     1.72514766   -0.00832170    1.71949677      11
Ni    -1.74673583    1.76864725   -0.01092147      12
Co    -1.75321056    0.01853128   -1.77570301      13
Cr    -0.08617564   -1.70223345    1.68724046      14
Co    -1.73644819   -1.71221948    0.01451950      15
Cr    -0.00892949    1.74601745    1.70551238      16
Co    -1.72663974    0.01811177    1.75922539      17
Ni     0.79985887    0.04515093   -0.71864191      18
          18
Lattice="  24.8920   0.0000   0.0000   0.0000  24.8920   0.0000   0.0000   0.0000  24.8920 " ConfE="      -5950.0087" DelE="         -0.1926"
Cr     0.03809682    0.02687017   -3.63491800       1
Cr     3.57332293   -0.00780209    0.00687092       2
Ni    -0.01158311   -3.55541318    0.01071114       3
Co     0.01376352    3.59383036    0.03079723       4
Co    -0.02676068    0.03407969    3.59410151       5
Cr    -3.55934551   -0.01967169    0.01853355       6
Ni     1.72102163   -1.72521597    0.00455849       7
Ni    -0.00250763   -1.71621271   -1.75307685       8
Ni     0.02486942    1.75338866   -1.74105770       9
Co     1.77018422    1.77377646    0.04614286      10
Ni     1.71113637   -0.00438774    1.76866454      11
Ni    -1.72662323    1.74187727    0.01074911      12
Co    -1.77960387    0.02221778   -1.79162535      13
Cr    -0.08932892   -1.72421761    1.73214926      14
Co    -1.74964391   -1.69901518    0.02175841      15
Cr    -0.01358763    1.77234961    1.75822508      16
Co    -1.72581224    0.00752729    1.78578259      17
Ni     1.77356017    0.01387610   -1.74440530      18
