          18
Lattice="  24.8920   0.0000   0.0000   0.0000  24.8920   0.0000   0.0000   0.0000  24.8920 " ConfE="      -5947.2203" DelE="          0.0000"
Ni    -0.04486303   -0.00382753   -3.43863728       1
Ni    -0.01455802   -3.60781141    0.05071321       2
Ni    -0.01684853   -0.02277599    3.60190769       3
Cr     3.48405288   -0.06172928   -0.04465728       4
Cr     0.03297512    3.56168919    0.07999200       5
Co    -3.59195787   -0.02090644    0.05684536       6
Ni     1.76782431    1.72179134    0.03812148       7
Ni     1.74872993   -1.77356457    0.04381538       8
Cr    -0.02386281    1.76917257   -1.68663453       9
Co    -0.00058313   -1.76008082   -1.70761385      10
Ni    -0.02134526    1.73984500    1.82987897      11
Ni    -1.78564743   -1.81945615    0.05566259      12
Ni    -0.02543970   -1.79075094    1.81977718      13
Cr    -1.86772672   -0.00671541   -1.72167602      14
Co    -1.81468154    1.76899949    0.03792689      15
Cr    -1.81402427   -0.02151015    1.80869128      16
Co     1.77142491   -0.02495375    1.83575836      17
Cr     0.00000000    0.00000000    0.00000000      18
          18
Lattice="  24.8920   0.0000   0.0000   0.0000  24.8920   0.0000   0.0000   0.0000  24.8920 " ConfE="      -5946.3771" DelE="          0.8432"
Ni    -0.08851930   -0.00982715   -3.40467128       1
Ni    -0.02693735   -3.66139981    0.05447313       2
Ni    -0.01701328   -0.02002115    3.59359327       3
Cr     3.46598965   -0.05785984   -0.00150634       4
Cr     0.01531771    3.64519264    0.08434657       5
Co    -3.59424512   -0.02307389    0.05732228       6
Ni     1.75846973    1.85386714    0.09469683       7
Ni     1.76251911   -1.91047768    0.08126696       8
Cr    -0.03774782    1.87858305   -1.70998357       9
Co    -0.07342858   -1.93123200   -1.74845784      10
Ni    -0.02407915    1.73896006    1.79965744      11
Ni    -1.74807583   -1.80923047    0.04711058      12
Ni    -0.02730138   -1.78072581    1.78754939      13
Cr    -1.83049056    0.01139494   -1.63087705      14
Co    -1.75174280    1.75138098    0.00996016      15
Cr    -1.73229857   -0.00278857    1.69966536      16
Co     1.73194293   -0.03080591    1.73718770      17
Cr     0.72017033   -0.05588902   -0.79177901      18
          18
Lattice="  24.8920   0.0000   0.0000   0.0000  24.8920   0.0000   0.0000   0.0000  24.8920 " ConfE="      -5947.0720" DelE="          0.1483"
Ni    -0.06987243   -0.00866190   -3.48482245       1
Ni    -0.02363700   -3.62416981    0.05952810       2
Ni    -0.01613005   -0.02413214    3.61543706       3
Cr     3.55643522   -0.05773702    0.08471608       4
Cr     0.03436547    3.57288807    0.08817625       5
Co    -3.62461721   -0.01821382    0.06150223       6
Ni     1.74141946    1.72124513    0.07428161       7
Ni     1.74022302   -1.78645939    0.07065502       8
Cr    -0.04431625    1.73567026   -1.64712242       9
Co    -0.02877500   -1.74355397   -1.67748912      10
Ni    -0.03485673    1.71250207    1.81651674      11
Ni    -1.77801207   -1.79448676    0.06699391      12
Ni    -0.03850494   -1.76627050    1.81178705      13
Cr    -1.81951558    0.00776449   -1.66820994      14
Co    -1.78711261    1.73015559    0.03241917      15
Cr    -1.79729833   -0.02371325    1.77687886      16
Co     1.76898624   -0.03221451    1.80802774      17
Cr     1.74610652   -0.05254250   -1.65112514      18
