          18
Lattice="  24.8920   0.0000   0.0000   0.0000  24.8920   0.0000   0.0000   0.0000  24.8920 " ConfE="      -5947.3050" DelE="          0.0000"
Co     0.03936361   -3.52825449   -0.04165084       1
Ni     3.51681146   -0.05329151    0.01482879       2
Cr    -0.02555158    3.58769872    0.01363158       3
Cr    -3.60466777    0.02393544   -0.01882203       4
Cr    -0.05405167   -0.00060479   -3.50613190       5
Co     0.01149121   -0.00087472    3.54995358       6
Cr    -0.09581529   -1.78784098   -1.76064955       7
Ni     0.01395298   -1.76451699    1.76753751       8
Cr     1.68179590   -0.09251137   -1.68534339       9
Cr     1.75753327   -0.05246354    1.71086196      10
Ni    -1.81417922   -1.79528095    0.03472617      11
Cr     1.79390444    1.79012214    0.00768754      12
Cr    -1.80516820    1.80406077    0.01313216      13
Co    -1.82079918    0.01703323   -1.74367439      14
Cr    -1.79966894    0.03314172    1.76891640      15
Co    -0.03048014    1.77446553   -1.73854372      16
Ni     0.00474093    1.77432212    1.79848697      17
Co     0.00000000    0.00000000    0.00000000      18
          18
Lattice="  24.8920   0.0000   0.0000   0.0000  24.8920   0.0000   0.0000   0.0000  24.8920 " ConfE="      -5946.7271" DelE="          0.5779"
Co     0.05682734   -3.48755068   -0.03697094       1
Ni     3.46586541   -0.04998958    0.02041282       2
Cr    -0.00177062    3.58795553    0.01373439       3
Cr    -3.60496293    0.01996143   -0.02689758       4
Cr    -0.07013687    0.00103249   -3.57640591       5
Co     0.01226146    0.00102816    3.60806569       6
Cr    -0.17141543   -1.81833901   -1.90044398       7
Ni    -0.01880583   -1.79500286    1.88650550       8
Cr     1.79930874    0.06749438   -1.92566949       9
Cr     1.78509406   -0.04251911    1.91023872      10
Ni    -1.73653484   -1.74989048    0.03845476      11
Cr     1.71063646    1.70582619   -0.00925635      12
Cr    -1.68814751    1.73381673    0.01909295      13
Co    -1.80780580    0.01178589   -1.74055452      14
Cr    -1.72805528    0.01973322    1.74184876      15
Co    -0.02351163    1.70066723   -1.72521809      16
Ni     0.02768897    1.73253895    1.80125979      17
Co     0.82456897   -0.81983117   -0.10520476      18
          18
Lattice="  24.8920   0.0000   0.0000   0.0000  24.8920   0.0000   0.0000   0.0000  24.8920 " ConfE="      -5947.2860" DelE="          0.0190"
Co    -0.00329584   -3.58562614   -0.02984434       1
Ni     3.57205833   -0.02413293    0.00645434       2
Cr    -0.02639654    3.61533435    0.01053408       3
Cr    -3.62477587    0.02161690   -0.02056416       4
Cr    -0.05906369    0.00562425   -3.53854482       5
Co     0.01015638    0.00277852    3.56244931       6
Cr    -0.11733258   -1.75246291   -1.76377538       7
Ni    -0.01255944   -1.74742020    1.77535617       8
Cr     1.62881347   -0.03731097   -1.64938629       9
Cr     1.72325804   -0.03443372    1.68021034      10
Ni    -1.76975187   -1.76739008    0.03841723      11
Cr     1.77572882    1.74680255    0.00801631      12
Cr    -1.79541746    1.78857317    0.01831055      13
Co    -1.77804058    0.01800326   -1.69773288      14
Cr    -1.77028309    0.04583521    1.73355071      15
Co    -0.03003597    1.72447363   -1.68483550      16
Ni     0.00320315    1.74491117    1.75901870      17
Co     1.71192612   -1.74284983   -0.01415676      18
