          23
Lattice="  24.8920   0.0000   0.0000   0.0000  24.8920   0.0000   0.0000   0.0000  24.8920 " ConfE="      -5940.6005" DelE="          0.0000"
Co    -2.54197394   -0.09650255   -2.46651620       1
Ni     2.68513985   -0.12358607    2.79657466       2
Co    -2.66197653    1.71308961   -0.71751285       3
Co    -0.83637239    3.55034220   -0.77322127       4
Cr     2.60777825    1.54778316    0.96688663       5
Cr     0.91546763    1.67513375    2.65868242       6
Ni    -0.80977845   -1.90519701   -2.49310556       7
Ni    -2.54398203   -1.92195000   -0.75629646       8
Cr     2.56925901   -1.79312977    0.93379280       9
Co     0.91397270   -1.87472376    2.73827687      10
Cr    -0.83412751   -3.80142877   -0.78043095      11
Co     0.97774604   -3.72927084    1.01433000      12
Co     0.98964259    3.56578787    1.00066006      13
Cr     0.93493254   -0.10386959   -2.46012932      14
Cr    -0.83353665    1.54610707   -2.20680786      15
Ni    -2.48777969   -0.10890699    0.93897938      16
Co     2.65695978   -0.06394875   -0.78188703      17
Cr    -0.74381176   -0.07872376    2.68286849      18
Co     1.09436856    1.94373551   -0.85781400      19
Cr    -0.83342227    1.91617464    0.93119895      20
Co     0.98613151   -2.02259351   -0.78140887      21
Cr    -0.70949526   -2.02639629    0.98755690      22
Ni     0.00000000    0.00000000    0.00000000      23
          23
Lattice="  24.8920   0.0000   0.0000   0.0000  24.8920   0.0000   0.0000   0.0000  24.8920 " ConfE="      -5940.5568" DelE="          0.0437"
Co    -2.55086412   -0.08888380   -2.49625287       1
Ni     2.70554786   -0.12402442    2.84746867       2
Co    -2.62436233    1.69616025   -0.73179159       3
Co    -0.82043254    3.52012234   -0.77434138       4
Cr     2.52653053    1.46689578    0.95613926       5
Cr     0.95879626    1.68500022    2.72865513       6
Ni    -0.80356502   -1.88106487   -2.49582580       7
Ni    -2.54263792   -1.89532349   -0.75159804       8
Cr     2.54968308   -1.74844002    0.94821271       9
Co     0.90838955   -1.84178662    2.74077020      10
Cr    -0.82511766   -3.76393963   -0.77069924      11
Co     0.97827409   -3.71115838    1.01792243      12
Co     1.00940775    3.54757005    0.99999294      13
Cr     0.96118659   -0.10294586   -2.52679141      14
Cr    -0.82669751    1.58058641   -2.32052867      15
Ni    -2.51323643   -0.08376826    0.96335052      16
Co     2.66748327   -0.07796761   -0.82237976      17
Cr    -0.75698186   -0.02138268    2.69799873      18
Co     1.09677569    1.91361425   -0.89589842      19
Cr    -0.71800379    1.87157340    0.95705088      20
Co     1.00230285   -2.00361141   -0.78216251      21
Cr    -0.68783032   -1.97417532    1.00467065      22
Ni    -0.18842237   -0.01558989   -0.22716254      23
          23
Lattice="  24.8920   0.0000   0.0000   0.0000  24.8920   0.0000   0.0000   0.0000  24.8920 " ConfE="      -5940.9595" DelE="         -0.3591"
Co    -2.58523405   -0.08651188   -2.54058833       1
Ni     2.69662540   -0.13116529    2.84662672       2
Co    -2.61116085    1.68721281   -0.74409692       3
Co    -0.80610740    3.47360801   -0.75992214       4
Cr     2.51699120    1.46335518    0.95592903       5
Cr     0.97398196    1.69296618    2.77594603       6
Ni    -0.81195635   -1.88775742   -2.53209304       7
Ni    -2.54600967   -1.88414879   -0.75013407       8
Cr     2.56231748   -1.75149317    0.96243539       9
Co     0.91767521   -1.87233858    2.78644906      10
Cr    -0.81221669   -3.71858033   -0.75144315      11
Co     0.96296160   -3.68163573    1.01663404      12
Co     0.98981123    3.51279865    0.99433049      13
Cr     0.99419319   -0.09903746   -2.57460985      14
Cr    -0.81231866    1.68835619   -2.49805200      15
Ni    -2.57206869   -0.08605903    1.01528076      16
Co     2.68399548   -0.08261228   -0.81034822      17
Cr    -0.76427527   -0.04633735    2.77869409      18
Co     0.98261527    1.71705686   -0.82914261      19
Cr    -0.63005842    1.61159386    0.94239994      20
Co     0.95704583   -1.87770685   -0.74792575      21
Cr    -0.61680917   -1.76329853    0.98926392      22
Ni    -0.77276446   -0.09752534   -0.77229933      23
