          18
Lattice="  24.8920   0.0000   0.0000   0.0000  24.8920   0.0000   0.0000   0.0000  24.8920 " ConfE="      -5938.4183" DelE="          0.0000"
Cr     3.41262399   -0.04665198    0.00149838       1
Co    -0.05887729    0.01385610    3.50839202       2
Ni    -3.60069298   -0.00361909    0.01876006       3
Ni    -0.07097014    3.55167901   -0.03417332       4
Cr    -0.09488162   -3.59736509    0.01631631       5
Co    -0.08753292    0.00535162   -3.62456932       6
Ni     1.66835596   -1.79190775   -0.00116375       7
Ni    -1.82732194    0.01342588    1.78468551       8
Ni    -1.80343624    1.76786901    0.01104703       9
Co     1.69223999    1.71963812   -0.02847716      10
Cr     0.09206712    1.66870228    1.74887294      11
Co    -0.02248038   -1.73789170    1.77169198      12
Ni    -1.83245870   -0.00923615   -1.76413593      13
Co     1.69349087    0.00826936   -1.86223980      14
Cr    -1.79541899   -1.79152115    0.03554530      15
Co    -0.05031319    1.75634459   -1.82776255      16
Cr    -0.06376674   -1.75050064   -1.82250836      17
Cr     0.00000000    0.00000000    0.00000000      18
          18
Lattice="  24.8920   0.0000   0.0000   0.0000  24.8920   0.0000   0.0000   0.0000  24.8920 " ConfE="      -5937.8723" DelE="          0.5460"
Cr     3.44021024   -0.03979942   -0.02437623       1
Co    -0.05408674   -0.02213510    3.52210267       2
Ni    -3.60067757    0.00050757    0.02801194       3
Ni    -0.10243026    3.61149337   -0.05289362       4
Cr    -0.11287826   -3.71396835    0.00059549       5
Co    -0.08375686    0.00502918   -3.61586391       6
Ni     1.66422472   -1.89364183   -0.01975364       7
Ni    -1.75043218    0.02356971    1.76279236       8
Ni    -1.78453391    1.76752593    0.01060514       9
Co     1.68843889    1.83364549   -0.11276924      10
Cr    -0.03466879    1.85512293    1.75049561      11
Co    -0.09513829   -1.88194192    1.76810654      12
Ni    -1.80403110   -0.00766114   -1.72886511      13
Co     1.64461310   -0.00398930   -1.73967535      14
Cr    -1.71806051   -1.73949161    0.03567737      15
Co    -0.06042381    1.74345840   -1.78768534      16
Cr    -0.06060700   -1.70336997   -1.73334332      17
Cr     0.91891230    0.04955876    1.08363686      18
          18
Lattice="  24.8920   0.0000   0.0000   0.0000  24.8920   0.0000   0.0000   0.0000  24.8920 " ConfE="      -5938.4014" DelE="          0.0169"
Cr     3.48373071   -0.03302058   -0.03061927       1
Co    -0.10491684    0.00691438    3.56788289       2
Ni    -3.61317793   -0.00355489    0.01823941       3
Ni    -0.09071886    3.59259083   -0.04553911       4
Cr    -0.10104866   -3.62255998    0.01430155       5
Co    -0.09113213    0.00525657   -3.63518682       6
Ni     1.63839933   -1.77714686   -0.01897223       7
Ni    -1.79749519    0.02635714    1.75968061       8
Ni    -1.80556520    1.77278409   -0.00040273       9
Co     1.64067816    1.69925607   -0.02872751      10
Cr    -0.01602630    1.72718592    1.69639624      11
Co    -0.08922378   -1.74437087    1.71465262      12
Ni    -1.79516121   -0.00665090   -1.72696748      13
Co     1.66427234    0.00556467   -1.80322143      14
Cr    -1.77708477   -1.77775921    0.01811257      15
Co    -0.05129597    1.75522516   -1.81150666      16
Cr    -0.07470759   -1.72350560   -1.77539904      17
Cr     1.59669863    0.00479116    1.71366057      18
