          18
Lattice="  24.8920   0.0000   0.0000   0.0000  24.8920   0.0000   0.0000   0.0000  24.8920 " ConfE="      -5943.0431" DelE="          0.0000"
Ni     0.03222935    0.01799603    3.51425472       1
Ni     0.06030167    3.51973499    0.03742446       2
Co     0.09454087   -0.03777634   -3.57021450       3
Cr     0.06544658   -3.56077847   -0.01116193       4
Ni     3.58957726   -0.02676559    0.00050400       5
Co    -3.49905079   -0.02694260   -0.05934287       6
Co     1.68378389   -0.01778855    1.69567317       7
Cr    -1.72331877    0.02310929    1.74410488       8
Ni     1.78893405    1.76584974    0.03341575       9
Co    -1.70723940    1.71866996    0.01105531      10
Co    -0.00615681   -1.81677729    1.73600706      11
Ni     0.06073735    1.76645720   -1.79437493      12
Co     0.04458910   -1.80064738   -1.79972344      13
Cr     1.77092541   -1.84326823   -0.00842188      14
Co    -1.72861070   -1.79868241   -0.01185899      15
Ni     1.82748407   -0.02142017   -1.76208922      16
Cr    -1.68903133   -0.06505527   -1.80470975      17
Cr     0.00000000    0.00000000    0.00000000      18
          18
Lattice="  24.8920   0.0000   0.0000   0.0000  24.8920   0.0000   0.0000   0.0000  24.8920 " ConfE="      -5942.2659" DelE="          0.7773"
Ni     0.04523091   -0.00309773    3.51214489       1
Ni     0.05465962    3.49945133    0.03667783       2
Co     0.09074291   -0.03078399   -3.56809154       3
Cr     0.07546755   -3.53681275    0.00981964       4
Ni     3.64194858   -0.03924640   -0.00790969       5
Co    -3.55790756   -0.04377221   -0.07018816       6
Co     1.83350105   -0.04768037    1.73322161       7
Cr    -1.88673419   -0.04992435    1.76891598       8
Ni     1.87732922    1.77233111    0.00173025       9
Co    -1.86152783    1.76013901   -0.06691215      10
Co     0.02299471   -1.70899819    1.68902137      11
Ni     0.04044553    1.72021635   -1.70940944      12
Co     0.04065822   -1.77919492   -1.77500759      13
Cr     1.70905682   -1.77845994    0.02315964      14
Co    -1.68031889   -1.72207757   -0.00372024      15
Ni     1.78720621   -0.02922503   -1.69989758      16
Cr    -1.62711668   -0.07247816   -1.68679657      17
Cr    -0.05145392    0.99476126    1.07056528      18
          18
Lattice="  24.8920   0.0000   0.0000   0.0000  24.8920   0.0000   0.0000   0.0000  24.8920 " ConfE="      -5942.8086" DelE="          0.2345"
Ni     0.05146202   -0.02139151    3.58385262       1
Ni     0.05346839    3.54970182    0.01069457       2
Co     0.09412572   -0.04400757   -3.59620465       3
Cr     0.07688726   -3.56710687   -0.00665640       4
Ni     3.60412342   -0.03779033   -0.00589150       5
Co    -3.52788609   -0.03003256   -0.05629296       6
Co     1.68865785   -0.02844324    1.68450327       7
Cr    -1.67989949   -0.01134120    1.70220032       8
Ni     1.78902761    1.74726060    0.01098402       9
Co    -1.70673375    1.68957056   -0.01772227      10
Co     0.00899727   -1.75108077    1.69677696      11
Ni     0.04483846    1.72523550   -1.75768163      12
Co     0.04055231   -1.78209749   -1.77931564      13
Cr     1.74300547   -1.84918683   -0.01899122      14
Co    -1.68346321   -1.74648887   -0.02380749      15
Ni     1.78186538   -0.03719144   -1.72297895      16
Cr    -1.66652021   -0.08512988   -1.76173646      17
Cr     0.00340296    1.64146837    1.71817568      18
