          18
Lattice="  24.8920   0.0000   0.0000   0.0000  24.8920   0.0000   0.0000   0.0000  24.8920 " ConfE="      -5946.6254" DelE="          0.0000"
Ni     3.51590532   -0.01544920    0.00396038       1
Ni    -0.00314425    3.51769466    0.00656426       2
Ni    -0.02977340   -0.02355703    3.54450501       3
Cr     0.02501668   -3.59975875    0.04509487       4
Cr    -0.05363635    0.04064309   -3.53882163       5
Cr    -3.57767088   -0.02643945   -0.03587494       6
Ni     1.75509486   -0.00391511    1.75816652       7
Co    -0.08579188    1.75182897    1.75671294       8
Ni     1.78601592   -1.81242206   -0.01517768       9
Cr     1.72172579    0.04772605   -1.77077155      10
Cr     0.01862965    1.75788902   -1.73876906      11
Ni    -0.00994327   -1.78479089   -1.78725786      12
Ni    -1.79512746   -1.81574027   -0.01235545      13
Co    -0.00990181   -1.81808403    1.74660771      14
Cr    -1.79992540   -0.00747480    1.76671365      15
Cr    -1.84363596    1.75844416   -0.01414245      16
Co    -1.77593417    0.00854771   -1.76523189      17
Ni     0.00000000    0.00000000    0.00000000      18
          18
Lattice="  24.8920   0.0000   0.0000   0.0000  24.8920   0.0000   0.0000   0.0000  24.8920 " ConfE="      -5946.0715" DelE="          0.5539"
Ni     3.51631822   -0.01652052    0.00357313       1
Ni    -0.01738014    3.47425809    0.01708233       2
Ni    -0.03453950   -0.03101969    3.58824047       3
Cr     0.03660053   -3.59886442    0.04146075       4
Cr    -0.06239732    0.01464502   -3.59227862       5
Cr    -3.59229660   -0.02356229   -0.02809920       6
Ni     1.78915490   -0.04387200    1.85928502       7
Co    -0.16103071    1.85508685    1.98736640       8
Ni     1.74992316   -1.73785595   -0.03242243       9
Cr     1.74298463    0.01502871   -1.88655284      10
Cr    -0.08434070    1.81627515   -1.96010815      11
Ni    -0.00413384   -1.76524508   -1.79808797      12
Ni    -1.75314360   -1.78183583   -0.01688217      13
Co    -0.00154625   -1.77069002    1.73114381      14
Cr    -1.71714593   -0.00717843    1.70638291      15
Cr    -1.81663237    1.73700843   -0.00895477      16
Co    -1.71626328    0.03495526   -1.71932598      17
Ni     0.65240869    0.86488120    0.01280177      18
          18
Lattice="  24.8920   0.0000   0.0000   0.0000  24.8920   0.0000   0.0000   0.0000  24.8920 " ConfE="      -5946.7140" DelE="         -0.0886"
Ni     3.55224460   -0.04153100   -0.00172998       1
Ni    -0.02230904    3.55785994    0.00346336       2
Ni    -0.03652525   -0.02759750    3.55942718       3
Cr     0.02703229   -3.61652709    0.04790046       4
Cr    -0.05545055    0.02323986   -3.57930361       5
Cr    -3.60035120   -0.03789077   -0.02882861       6
Ni     1.73604475   -0.04332368    1.75767001       7
Co    -0.12432020    1.66588647    1.68663458       8
Ni     1.76363759   -1.78433900   -0.02122513       9
Cr     1.69284513   -0.01129507   -1.78277355      10
Cr    -0.03529552    1.70512298   -1.74563271      11
Ni    -0.00771536   -1.77047489   -1.77054957      12
Ni    -1.77530220   -1.80307870   -0.00720471      13
Co    -0.01620194   -1.79085258    1.72285388      14
Cr    -1.76798842   -0.02819061    1.72600271      15
Cr    -1.78925357    1.72381265   -0.00824191      16
Co    -1.72123678    0.01650950   -1.70592082      17
Ni     1.70925892    1.70448885   -0.01181414      18
