          19
Lattice="  24.8920   0.0000   0.0000   0.0000  24.8920   0.0000   0.0000   0.0000  24.8920 " ConfE="      -5926.3472" DelE="          0.0000"
Ni     0.01639798    3.59122611    0.22432799       1
Cr     1.66832280    1.81140414   -3.13905860       2
Ni     3.61935066    0.00077213    0.21313947       3
Co    -3.54218551    0.05502774    0.17946203       4
Cr    -0.00251909    0.03248732   -3.22645689       5
Co     0.03730092   -3.60989361    0.16947711       6
Cr     0.04389599    0.01068697    3.75177458       7
Cr     1.71831513    1.78144578    0.06742000       8
Cr    -1.68885695    1.81422472    0.06372348       9
Cr    -1.82774921    0.03542241   -1.60113925      10
Ni    -1.76027568   -1.80219760    0.18654714      11
Ni     0.04786822   -1.77899894    1.94540065      12
Cr     1.78615241    0.01882742    1.92462303      13
Cr     1.85362673   -0.03083699   -1.57511743      14
Co     1.82165332   -1.77924212    0.19067133      15
Cr     0.01606706    1.75591706    2.01048733      16
Cr    -1.77812451    0.00425378    1.95277530      17
Co     0.02391545   -1.83200075   -1.58164620      18
Cr     0.00000000    0.00000000    0.00000000      19
          19
Lattice="  24.8920   0.0000   0.0000   0.0000  24.8920   0.0000   0.0000   0.0000  24.8920 " ConfE="      -5926.0666" DelE="          0.2805"
Ni     0.03795660    3.51951975    0.20948483       1
Cr     1.59423333    1.71737030   -2.94854611       2
Ni     3.69916724   -0.02531961    0.26841548       3
Co    -3.59656902    0.03899842    0.22119972       4
Cr    -0.02575009   -0.00862226   -3.26735936       5
Co     0.03681911   -3.63409510    0.15690269       6
Cr     0.03906257    0.01116383    3.71511266       7
Cr     2.00884785    1.88462676    0.14248764       8
Cr    -1.90716816    1.88004725    0.15908016       9
Cr    -1.90047891    0.00355553   -1.51465759      10
Ni    -1.73938835   -1.80333819    0.17913495      11
Ni     0.06508908   -1.81083540    1.91895428      12
Cr     1.69482774    0.01965289    1.78449682      13
Cr     2.06181181   -0.15867942   -1.50127402      14
Co     1.81750577   -1.76890337    0.19580510      15
Cr     0.10427280    1.81898312    2.02106715      16
Cr    -1.48616928    0.05254993    1.70100556      17
Co     0.03778201   -1.72203140   -1.53951236      18
Cr     0.09218762    0.78261760   -0.57601686      19
          19
Lattice="  24.8920   0.0000   0.0000   0.0000  24.8920   0.0000   0.0000   0.0000  24.8920 " ConfE="      -5926.6286" DelE="         -0.2815"
Ni     0.02503750    3.65075235    0.27285812       1
Cr     1.78921889    1.78509952   -3.32185947       2
Ni     3.61573164   -0.00910707    0.23704935       3
Co    -3.54131467    0.03938906    0.22275045       4
Cr     0.03166650    0.00612075   -3.32733393       5
Co     0.03552163   -3.67999889    0.16998124       6
Cr     0.04353373    0.00216456    3.72982736       7
Cr     1.81304330    1.83222937    0.23573732       8
Cr    -1.78777452    1.84602008    0.22308543       9
Cr    -1.57438479    0.01415590   -1.36781175      10
Ni    -1.72385970   -1.84499417    0.21565508      11
Ni     0.07329233   -1.85477143    1.94961529      12
Cr     1.67804069   -0.01050137    1.84462899      13
Cr     1.55796520   -0.05172354   -1.28423107      14
Co     1.81730145   -1.81840761    0.21050488      15
Cr     0.05595446    1.80292502    1.99645206      16
Cr    -1.48843617   -0.00324619    1.76592766      17
Co     0.02724386   -1.81564837   -1.53822093      18
Cr     0.01986474    1.84818224   -1.52236332      19
