          25
Lattice="  24.8920   0.0000   0.0000   0.0000  24.8920   0.0000   0.0000   0.0000  24.8920 " ConfE="      -5930.7294" DelE="          0.0000"
Ni     1.70589335    2.68224014    1.95793885       1
Ni    -1.84968846    2.64998581    1.97963562       2
Ni    -3.63573630   -0.94240788    0.17782865       3
Ni    -0.05256177   -0.92467025    3.73797315       4
Ni     3.51436491   -0.91083355    0.16735840       5
Cr    -1.85239328    0.82863511   -3.40154463       6
Ni     1.77365421    0.84014111   -3.44779772       7
Ni     1.73629021    2.59898147   -1.65453135       8
Ni    -1.85184553    2.65211538   -1.63322524       9
Ni     1.95935638   -2.82841323    0.08238572      10
Cr    -0.26704653   -2.98823021    2.33438805      11
Ni    -0.03551104   -2.78449719   -1.68085758      12
Co    -2.04899297   -2.89326151    0.20313022      13
Ni    -0.02403552   -0.98022813   -3.41303897      14
Ni    -1.81581403   -0.91563707    1.94009959      15
Cr     1.68497397   -0.92886751    1.87068846      16
Ni     1.99569094    1.00031029    0.20739431      17
Cr    -0.07954652   -1.98571644    0.53006043      18
Ni    -0.05073110    0.96361431    2.09915983      19
Cr    -1.78201255   -0.91911033   -1.53967970      20
Ni    -2.05597877    0.95343514    0.20340445      21
Co     1.66284917   -0.91071106   -1.55546887      22
Cr    -0.06651576    2.62923748    0.13784991      23
Co     0.00000000    0.00000000    0.00000000      24
Co    -0.12579590    0.98438180   -1.97432880      25
          25
Lattice="  24.8920   0.0000   0.0000   0.0000  24.8920   0.0000   0.0000   0.0000  24.8920 " ConfE="      -5930.5863" DelE="          0.1431"
Ni     1.77511968    2.66719010    1.90469843       1
Ni    -1.88077722    2.66534831    1.99741423       2
Ni    -3.64223406   -0.95636305    0.18481120       3
Ni    -0.04437431   -0.91277984    3.73237681       4
Ni     3.50946887   -0.95434456    0.17172942       5
Cr    -1.81887439    0.81433671   -3.34655569       6
Ni     1.75084321    0.81801703   -3.41706672       7
Ni     1.74003901    2.61647724   -1.65383704       8
Ni    -1.83940740    2.65519299   -1.62728718       9
Ni     1.83741615   -2.81717748    0.19149685      10
Cr    -0.14011579   -2.88654363    2.13020047      11
Ni    -0.07685630   -2.86506281   -1.72669924      12
Co    -1.98274380   -2.87334733    0.22410874      13
Ni    -0.04130688   -0.99825822   -3.37791712      14
Ni    -1.77822662   -0.84523063    1.92319654      15
Cr     1.64819120   -0.81168877    1.87617699      16
Ni     2.07212723    0.97470871    0.07778257      17
Cr    -0.12651873   -1.65993606    0.20377233      18
Ni    -0.03209060    1.23646939    2.54598121      19
Cr    -1.74792597   -0.86643577   -1.48054773      20
Ni    -2.18745092    0.98707369    0.12995867      21
Co     1.63650451   -0.91907674   -1.51997820      22
Cr    -0.06871095    2.69534602    0.17596774      23
Co    -0.04777538    0.39057112    0.45122616      24
Co    -0.09091999    0.89259858   -1.78280620      25
          25
Lattice="  24.8920   0.0000   0.0000   0.0000  24.8920   0.0000   0.0000   0.0000  24.8920 " ConfE="      -5934.7632" DelE="         -4.0339"
Ni     1.69161168    2.60720850    1.91307386       1
Ni    -1.83025193    2.60403522    1.96371101       2
Ni    -3.61860772   -0.93322457    0.17025290       3
Ni    -0.05014182   -0.91341552    3.74553278       4
Ni     3.48502168   -0.93617251    0.16079684       5
Cr    -1.82554420    0.80815219   -3.36197616       6
Ni     1.73748570    0.82039598   -3.40024589       7
Ni     1.73272241    2.59853761   -1.62643195       8
Ni    -1.82336933    2.61805525   -1.61969300       9
Ni     1.72593847   -2.73874784    0.17773481      10
Cr    -0.09531173   -2.75403582    2.00280926      11
Ni    -0.06175972   -2.75616031   -1.59136452      12
Co    -1.82458410   -2.73866651    0.19844891      13
Ni    -0.04014098   -0.97227054   -3.38171620      14
Ni    -1.82567359   -0.92209637    1.95275550      15
Cr     1.69468006   -0.92522751    1.92795173      16
Ni     1.71010630    0.83590196    0.13501186      17
Cr    -0.06206938   -0.99495977    0.17814241      18
Ni    -0.02857940    2.59133599    3.75361515      19
Cr    -1.80204849   -0.92431628   -1.58256834      20
Ni    -1.81489059    0.84837425    0.16979157      21
Co     1.68399494   -0.94464165   -1.59530680      22
Cr    -0.06676603    2.67898027    0.18324317      23
Co    -0.01088813    0.79802558    1.92183603      24
Co    -0.06011303    0.82719782   -1.60071437      25
