          18
Lattice="  24.8920   0.0000   0.0000   0.0000  24.8920   0.0000   0.0000   0.0000  24.8920 " ConfE="      -5948.5373" DelE="          0.0000"
Ni    -3.41836276   -0.07904651    0.05260439       1
Cr     0.10681244    3.42931696    0.07197859       2
Co     3.67288010   -0.04235355    0.01908947       3
Ni     0.10961954   -3.63719183    0.06247058       4
Co     0.06523509   -0.09939825    3.59664489       5
Ni     0.09533237   -0.03533637   -3.48895024       6
Cr    -1.67998247   -0.00371956    1.73918287       7
Cr    -1.66959824    0.05725931   -1.65091876       8
Ni     0.07071824    1.67919268    1.80893867       9
Cr     0.13065272    1.70879364   -1.66390028      10
Ni    -1.67037479   -1.89039336    0.03441162      11
Co     1.87958359    1.70462764    0.07013599      12
Ni     1.84229943   -1.84477006    0.02199928      13
Ni     0.07091933   -1.85749954    1.81086645      14
Co     0.04382092   -1.81446883   -1.75665765      15
Ni     1.85108435   -0.10576562    1.82019893      16
Co     1.84915469   -0.01680111   -1.72123600      17
Co     0.00000000    0.00000000    0.00000000      18
          18
Lattice="  24.8920   0.0000   0.0000   0.0000  24.8920   0.0000   0.0000   0.0000  24.8920 " ConfE="      -5948.2274" DelE="          0.3099"
Ni    -3.37519963   -0.08090664    0.05315976       1
Cr     0.08458254    3.37328020    0.07970531       2
Co     3.65592486   -0.02690101    0.02040621       3
Ni     0.10704361   -3.64455468    0.07103145       4
Co     0.07655143   -0.11563237    3.64460475       5
Ni     0.10977588   -0.04061969   -3.53485124       6
Cr    -1.67613967   -0.04722863    1.90352961       7
Cr    -1.72779954   -0.04038502   -1.84032651       8
Ni     0.13508791    1.70597135    1.95253193       9
Cr     0.20489475    1.76682970   -1.83030906      10
Ni    -1.63359957   -1.83388625    0.03917849      11
Co     1.81157861    1.70526407    0.08178290      12
Ni     1.80663773   -1.81780494    0.02971724      13
Ni     0.07303410   -1.84122351    1.81813317      14
Co     0.03686557   -1.76985393   -1.74064670      15
Ni     1.83251930   -0.09943503    1.82524306      16
Co     1.77467162    0.00227870   -1.68516104      17
Co    -0.60173561    0.67426941   -0.02705946      18
          18
Lattice="  24.8920   0.0000   0.0000   0.0000  24.8920   0.0000   0.0000   0.0000  24.8920 " ConfE="      -5948.8926" DelE="         -0.3553"
Ni    -3.44235295   -0.10786973    0.04274084       1
Cr     0.12886603    3.47247933    0.07274438       2
Co     3.68190491   -0.03916062    0.02344512       3
Ni     0.11180099   -3.65371934    0.06854605       4
Co     0.07520112   -0.10934562    3.61504152       5
Ni     0.11701741   -0.03497684   -3.52318853       6
Cr    -1.65605787   -0.06000438    1.76657694       7
Cr    -1.61213547   -0.03149106   -1.68104321       8
Ni     0.10053203    1.63477992    1.80029993       9
Cr     0.19016239    1.67022205   -1.65455314      10
Ni    -1.64067392   -1.85283380    0.04292234      11
Co     1.84124586    1.68662039    0.06208006      12
Ni     1.83251748   -1.84503342    0.02752305      13
Ni     0.08074571   -1.85471901    1.80786332      14
Co     0.04854388   -1.78157551   -1.73944951      15
Ni     1.84860123   -0.11485090    1.81223852      16
Co     1.81175735   -0.01752888   -1.69099835      17
Co    -1.62483659    1.63586109    0.02735980      18
