          18
Lattice="  24.8920   0.0000   0.0000   0.0000  24.8920   0.0000   0.0000   0.0000  24.8920 " ConfE="      -5927.4837" DelE="          0.0000"
Ni    -0.06774390   -3.42353149   -0.17003200       1
Cr    -0.03665577    0.12424442    3.25359787       2
Cr    -0.06215404    3.73922667   -0.20462137       3
Cr    -0.08304763    0.16390859   -3.75060303       4
Cr    -3.66063545    0.15520135   -0.20551696       5
Ni     3.48652840    0.13836640   -0.21543587       6
Cr    -1.79278963   -1.67460911   -0.12511320       7
Cr     1.69111068   -1.66636286   -0.21302088       8
Cr    -1.83264646    0.15894864    1.58312025       9
Co     1.72961566    0.11088490    1.57316984      10
Co    -0.11257726   -1.64511030   -1.99085614      11
Cr    -0.04295153    1.95844425    1.56977292      12
Cr    -0.03739325    1.91415717   -1.93831199      13
Cr    -1.80140638    0.11944818   -1.95084570      14
Co     1.66616040    0.13503430   -1.97189722      15
Cr    -1.86323416    1.94826110   -0.19720391      16
Co     1.68650784    1.91539998   -0.19136183      17
Cr     0.00000000    0.00000000    0.00000000      18
          18
Lattice="  24.8920   0.0000   0.0000   0.0000  24.8920   0.0000   0.0000   0.0000  24.8920 " ConfE="      -5926.8880" DelE="          0.5957"
Ni    -0.10845640   -3.37237665   -0.18169805       1
Cr    -0.01936908    0.15918102    3.35386334       2
Cr    -0.07281207    3.68875383   -0.18634755       3
Cr    -0.07140551    0.15858947   -3.74173178       4
Cr    -3.74589038    0.22617607   -0.30218746       5
Ni     3.53697219    0.15645316   -0.23258038       6
Cr    -2.08105365   -1.64335607   -0.22090182       7
Cr     1.80893230   -1.63880460   -0.29711026       8
Cr    -2.06413821    0.14444097    1.64375947       9
Co     1.79929102    0.13772741    1.55589230      10
Co    -0.13284079   -1.59681327   -1.89509646      11
Cr    -0.02186355    1.82886096    1.53390743      12
Cr    -0.01886225    1.87332538   -1.89171958      13
Cr    -1.74966912    0.07823106   -1.94495970      14
Co     1.64670372    0.12832385   -1.94274282      15
Cr    -1.77120174    1.73723469   -0.15157873      16
Co     1.65677234    1.86791409   -0.18424050      17
Cr    -0.10830117   -0.94548118    0.81716325      18
          18
Lattice="  24.8920   0.0000   0.0000   0.0000  24.8920   0.0000   0.0000   0.0000  24.8920 " ConfE="      -5927.3196" DelE="          0.1641"
Ni    -0.07145929   -3.44878824   -0.19749574       1
Cr    -0.03860064    0.19221141    3.36123255       2
Cr    -0.05435223    3.73626863   -0.20110993       3
Cr    -0.08025923    0.17362937   -3.73236598       4
Cr    -3.68904706    0.15820513   -0.23106566       5
Ni     3.53240776    0.14632596   -0.23691698       6
Cr    -1.81396756   -1.65127650   -0.19747798       7
Cr     1.68309230   -1.60233289   -0.27766104       8
Cr    -1.82742198    0.19186383    1.47837257       9
Co     1.73949469    0.14968604    1.52549279      10
Co    -0.11328745   -1.61023295   -1.93564510      11
Cr    -0.01123450    1.79803438    1.39956419      12
Cr    -0.00296995    1.85616345   -1.82894726      13
Cr    -1.78135372    0.12499052   -1.90688210      14
Co     1.66341727    0.14035006   -1.96356489      15
Cr    -1.87518869    1.94695094   -0.22602478      16
Co     1.71463726    1.90335867   -0.21319737      17
Cr    -0.00673065   -1.44796606    1.45081001      18
