          18
Lattice="  24.8920   0.0000   0.0000   0.0000  24.8920   0.0000   0.0000   0.0000  24.8920 " ConfE="      -5936.9553" DelE="          0.0000"
Ni     0.07650964    0.04909856   -3.58712906       1
Cr     0.00554593   -3.49416407   -0.05305202       2
Co    -3.43478465    0.04760260   -0.06161156       3
Ni     0.07264345    3.59249886   -0.04218366       4
Co     3.65199786    0.03783384   -0.01528108       5
Co     0.05236276    0.04458776    3.45683415       6
Ni     0.06240648   -1.73023073   -1.78916532       7
Co    -1.68443780    0.03916299   -1.76459708       8
Ni     1.85696712   -1.71265836   -0.04624348       9
Co     0.01755434   -1.64601135    1.66131785      10
Cr    -1.83799039    0.03719726    1.64532931      11
Ni     0.04360186    1.81078661    1.71695220      12
Co    -1.70542175    1.84988113   -0.06579092      13
Co     0.05912703    1.79250781   -1.81520251      14
Co     1.82314341    0.07107057   -1.77800280      15
Co     1.81982584    1.74882775   -0.01642431      16
Cr     1.93256463    0.11067202    1.70470100      17
Cr     0.00000000    0.00000000    0.00000000      18
          18
Lattice="  24.8920   0.0000   0.0000   0.0000  24.8920   0.0000   0.0000   0.0000  24.8920 " ConfE="      -5936.2077" DelE="          0.7476"
Ni     0.09323755    0.05020229   -3.63431005       1
Cr     0.02747908   -3.49212893   -0.04588985       2
Co    -3.46774112    0.07188234   -0.06854480       3
Ni     0.06365155    3.57226977   -0.03513731       4
Co     3.67281727    0.03202143   -0.01388635       5
Co     0.06500152    0.05506621    3.51834620       6
Ni     0.11169593   -1.72225599   -1.87086080       7
Co    -1.71617468    0.10040090   -1.92541847       8
Ni     1.78813282   -1.65018208   -0.03020027       9
Co     0.08535382   -1.65028171    1.77822540      10
Cr    -1.89260548    0.07967697    1.83622421      11
Ni     0.02546514    1.73992603    1.69350683      12
Co    -1.68699021    1.75674555   -0.07139457      13
Co     0.05213072    1.75807138   -1.79925511      14
Co     1.80665604    0.07952783   -1.77555261      15
Co     1.79725397    1.68747344   -0.00236268      16
Cr     1.92237419    0.13480575    1.69319094      17
Cr    -1.00747839   -0.85171208   -0.01101997      18
          18
Lattice="  24.8920   0.0000   0.0000   0.0000  24.8920   0.0000   0.0000   0.0000  24.8920 " ConfE="      -5936.9221" DelE="          0.0333"
Ni     0.09022133    0.04984468   -3.61156656       1
Cr     0.03848504   -3.51917299   -0.05408459       2
Co    -3.53217681    0.08363344   -0.06640877       3
Ni     0.07015377    3.58605523   -0.03854108       4
Co     3.68826247    0.04091456   -0.01369044       5
Co     0.06087621    0.05264424    3.50120251       6
Ni     0.08476204   -1.69652522   -1.78940588       7
Co    -1.67744072    0.04559470   -1.76303467       8
Ni     1.81763038   -1.65260668   -0.03800985       9
Co     0.03978210   -1.58969844    1.65980868      10
Cr    -1.80913196    0.10495528    1.67510422      11
Ni     0.05595053    1.77311688    1.69610057      12
Co    -1.68519462    1.77158517   -0.05831246      13
Co     0.05757545    1.78243689   -1.81375165      14
Co     1.83525701    0.09374747   -1.78970847      15
Co     1.81408150    1.70537064   -0.01246187      16
Cr     1.94488178    0.14298757    1.69643942      17
Cr    -1.66383662   -1.61153318    0.01234889      18
