          18
Lattice="  24.8920   0.0000   0.0000   0.0000  24.8920   0.0000   0.0000   0.0000  24.8920 " ConfE="      -5928.4803" DelE="          0.0000"
Cr    -0.15287848    3.46698338   -0.04786981       1
Cr     3.34851878    0.00075901    0.00734671       2
Cr    -0.09797411   -3.60922145   -0.01245910       3
Co    -3.71763448   -0.08588436    0.00577761       4
Co    -0.14523017   -0.07320342   -3.54467089       5
Co    -0.11372795   -0.07606007    3.56209115       6
Cr    -0.08440757    1.69585918   -1.74440759       7
Ni    -0.07834342    1.73164185    1.75772690       8
Cr     1.66258295   -0.01743285   -1.73785143       9
Cr     1.67671946   -0.04319224    1.77626512      10
Co    -1.92397741    1.68344839   -0.01412234      11
Co     1.68495391   -1.87759267   -0.01667944      12
Cr    -1.81066504   -1.76485987    0.01898220      13
Cr    -1.88228605   -0.04497069   -1.74017538      14
Cr    -1.86012407   -0.02807284    1.78938043      15
Co    -0.11408534   -1.82988325   -1.76272711      16
Cr    -0.05657251   -1.82407183    1.78219512      17
Co     0.00000000    0.00000000    0.00000000      18
          18
Lattice="  24.8920   0.0000   0.0000   0.0000  24.8920   0.0000   0.0000   0.0000  24.8920 " ConfE="      -5927.9250" DelE="          0.5553"
Cr    -0.11603587    3.48422920   -0.01907582       1
Cr     3.32740169    0.01613037   -0.02019882       2
Cr    -0.06423699   -3.65199351   -0.02283137       3
Co    -3.67286507   -0.09618006   -0.00444127       4
Co    -0.18628930   -0.09090258   -3.60422213       5
Co    -0.14053161   -0.08516090    3.63102209       6
Cr    -0.11510537    1.81350608   -1.88181447       7
Ni    -0.14050959    1.78330217    1.93568212       8
Cr     1.54670085   -0.09921643   -1.87842159       9
Cr     1.58073408   -0.06848973    1.94222786      10
Co    -1.82924770    1.71310592    0.00762775      11
Co     1.60803853   -1.74003449   -0.01314045      12
Cr    -1.75868047   -1.79650191    0.00771088      13
Cr    -1.60296526    0.00614423   -1.52951594      14
Cr    -1.68705160   -0.01742542    1.64508553      15
Co    -0.12431436   -1.85649115   -1.77731600      16
Cr    -0.04847729   -1.81771595    1.75819593      17
Co     0.93261146    1.00281573   -0.00125764      18
          18
Lattice="  24.8920   0.0000   0.0000   0.0000  24.8920   0.0000   0.0000   0.0000  24.8920 " ConfE="      -5928.6614" DelE="         -0.1811"
Cr    -0.20549220    3.58139116   -0.05216887       1
Cr     3.40253111   -0.06007915   -0.00033049       2
Cr    -0.12203404   -3.71331338   -0.02025084       3
Co    -3.69926676   -0.10395659    0.00031679       4
Co    -0.15487768   -0.08357715   -3.54199551       5
Co    -0.11449063   -0.07306477    3.55659740       6
Cr    -0.10206114    1.75404629   -1.75340528       7
Ni    -0.10416145    1.74953690    1.74284774       8
Cr     1.47715190   -0.04257937   -1.57730655       9
Cr     1.53595971   -0.08831274    1.61658022      10
Co    -1.89248568    1.71705884   -0.00754399      11
Co     1.62984494   -1.87962401   -0.01905231      12
Cr    -1.80060715   -1.83682097    0.01021309      13
Cr    -1.66270891   -0.01799094   -1.52384224      14
Cr    -1.71055409   -0.03920718    1.63103564      15
Co    -0.13106464   -1.86585085   -1.74427012      16
Cr    -0.06778054   -1.85999672    1.76564833      17
Co     1.62929594    1.77085446   -0.00576022      18
