          18
Lattice="  24.8920   0.0000   0.0000   0.0000  24.8920   0.0000   0.0000   0.0000  24.8920 " ConfE="      -5938.0856" DelE="          0.0000"
Ni    -0.03772838    3.47751477   -0.03469745       1
Ni     3.51468634   -0.02452357   -0.03247927       2
Ni    -0.02893995   -3.59039558   -0.02957946       3
Co     0.05886799    0.03153876    3.47657236       4
Co    -3.54121427   -0.05732129   -0.04744045       5
Co    -0.01337776   -0.04706291   -3.63218597       6
Ni    -1.77117798    1.72144451   -0.01587268       7
Ni    -1.73985924   -0.00369252    1.76268312       8
Ni     1.70880424    1.72398535    0.02066299       9
Ni    -1.77204666   -0.05247915   -1.82194621      10
Cr     1.73926667   -0.04414048    1.82269073      11
Co     0.00993348    1.68089346   -1.83924148      12
Cr    -1.72577346   -1.77308902   -0.00160961      13
Cr     1.75758371   -0.01029529   -1.87152423      14
Cr     0.06067467   -1.76905991   -1.80544902      15
Co     0.00675180   -1.82206278    1.77643958      16
Co     1.72615477   -1.78165921    0.00834778      17
Cr     0.00000000    0.00000000    0.00000000      18
          18
Lattice="  24.8920   0.0000   0.0000   0.0000  24.8920   0.0000   0.0000   0.0000  24.8920 " ConfE="      -5937.1161" DelE="          0.9695"
Ni    -0.03673663    3.43970995   -0.03091016       1
Ni     3.56128002   -0.03082033   -0.04555998       2
Ni    -0.02868294   -3.59544491   -0.02827713       3
Co     0.03481702    0.00740339    3.48292577       4
Co    -3.64329736   -0.08476142   -0.07738778       5
Co    -0.01624465   -0.03678117   -3.62378246       6
Ni    -1.88508688    1.71758568   -0.04299171       7
Ni    -1.90158923   -0.04464004    1.77716765       8
Ni     1.87820828    1.77051513   -0.06020555       9
Ni    -1.75511051   -0.06144178   -1.76407098      10
Cr     1.85416578   -0.10718574    1.79758309      11
Co     0.03416680    1.61215628   -1.71198292      12
Cr    -1.65942668   -1.70344090    0.02381357      13
Cr     1.70899777    0.00979912   -1.80758596      14
Cr     0.06190498   -1.72139154   -1.75819981      15
Co    -0.01222454   -1.71951949    1.71825280      16
Co     1.67727468   -1.71843698    0.00332793      17
Cr     0.04359079    0.96478743    1.03225774      18
          18
Lattice="  24.8920   0.0000   0.0000   0.0000  24.8920   0.0000   0.0000   0.0000  24.8920 " ConfE="      -5937.6928" DelE="          0.3928"
Ni    -0.02014238    3.49147139   -0.04497459       1
Ni     3.53080666   -0.03268160   -0.04543816       2
Ni    -0.02479199   -3.60785571   -0.03073608       3
Co     0.02738608   -0.03345184    3.55700702       4
Co    -3.57938104   -0.06929109   -0.06061724       5
Co    -0.01728961   -0.05397790   -3.66228658       6
Ni    -1.75330894    1.68740002   -0.02599651       7
Ni    -1.74986985   -0.03893570    1.73426662       8
Ni     1.72771905    1.69324726   -0.01794241       9
Ni    -1.74353731   -0.07636113   -1.79217267      10
Cr     1.74046467   -0.11002302    1.79377356      11
Co     0.03431465    1.63046154   -1.79336276      12
Cr    -1.69197962   -1.78308280   -0.02074721      13
Cr     1.73148070    0.00185721   -1.87776241      14
Cr     0.08908849   -1.70790535   -1.74114880      15
Co     0.01414184   -1.75636091    1.73708186      16
Co     1.68309010   -1.73844062   -0.01338587      17
Cr     0.05273198    1.62016383    1.71039290      18
