          18
Lattice="  24.8920   0.0000   0.0000   0.0000  24.8920   0.0000   0.0000   0.0000  24.8920 " ConfE="      -5929.3181" DelE="          0.0000"
Cr    -0.02611908    0.16682413    3.44904838       1
Co     3.45453639   -0.04603300    0.02377736       2
Cr    -0.11958783   -0.01723060   -3.53923706       3
Co    -3.61513820   -0.06317805   -0.01892385       4
Ni    -0.00252884   -3.56982259   -0.01220494       5
Cr    -0.01914539    3.49663895    0.03094339       6
Ni    -0.02174520   -1.71804594    1.76268586       7
Co    -0.04622069    1.74877361    1.77159030       8
Cr     1.75257380   -1.68844795    0.06582940       9
Ni     1.73286667    1.73445975    0.03299455      10
Co    -1.84986512   -0.03120732    1.78057030      11
Cr     1.71215116    0.01257395   -1.79945624      12
Co    -1.83222792   -0.02341266   -1.80180283      13
Ni    -1.81360354   -1.78770916    0.00501311      14
Ni    -1.83775158    1.74617345   -0.00443218      15
Ni    -0.02392921   -1.80492201   -1.77815949      16
Co    -0.05236779    1.74517197   -1.79666144      17
Co     0.00000000    0.00000000    0.00000000      18
          18
Lattice="  24.8920   0.0000   0.0000   0.0000  24.8920   0.0000   0.0000   0.0000  24.8920 " ConfE="      -5928.7643" DelE="          0.5538"
Cr    -0.02158338    0.13820145    3.41776163       1
Co     3.43382344   -0.03053841    0.04218845       2
Cr    -0.11441238   -0.01263516   -3.55316961       3
Co    -3.59754134   -0.06464801   -0.00377224       4
Ni    -0.02620077   -3.63069791   -0.02720279       5
Cr    -0.03456980    3.60141878   -0.01686888       6
Ni    -0.12194139   -1.92230612    1.79987726       7
Co    -0.08178922    1.92789881    1.76134703       8
Cr     1.75372782   -1.86738167    0.02836213       9
Ni     1.73882028    1.89466581   -0.02345565      10
Co    -1.71420445   -0.01577715    1.75077016      11
Cr     1.64168487    0.01476690   -1.62441854      12
Co    -1.81341742   -0.01488916   -1.79439635      13
Ni    -1.79399066   -1.77240871    0.00450505      14
Ni    -1.79439178    1.73927809   -0.00721101      15
Ni    -0.02836129   -1.77317967   -1.72389398      16
Co    -0.03741486    1.71322718   -1.75643376      17
Co     1.00742111   -0.04571265    1.03378383      18
          18
Lattice="  24.8920   0.0000   0.0000   0.0000  24.8920   0.0000   0.0000   0.0000  24.8920 " ConfE="      -5929.2790" DelE="          0.0391"
Cr    -0.05475408    0.14710028    3.49476580       1
Co     3.52349854   -0.02682479   -0.01321664       2
Cr    -0.12515611   -0.01651486   -3.57557717       3
Co    -3.62617251   -0.06257809   -0.01813464       4
Ni    -0.01689878   -3.58785696   -0.01862717       5
Cr    -0.03161920    3.53838417    0.02015984       6
Ni    -0.06750274   -1.73964905    1.74578401       7
Co    -0.06941272    1.75465531    1.76163992       8
Cr     1.70710499   -1.68662454    0.04412074       9
Ni     1.69434922    1.74505097    0.00144487      10
Co    -1.82292964   -0.02738366    1.77645354      11
Cr     1.67896906    0.00821593   -1.72205487      12
Co    -1.81892814   -0.01823674   -1.80715441      13
Ni    -1.80154746   -1.75498188   -0.00323470      14
Ni    -1.80805443    1.72005853   -0.00584484      15
Ni    -0.02821495   -1.77087787   -1.75301505      16
Co    -0.04772499    1.70393580   -1.77563080      17
Co     1.67383425   -0.02534400    1.67496026      18
