          18
Lattice="  24.8920   0.0000   0.0000   0.0000  24.8920   0.0000   0.0000   0.0000  24.8920 " ConfE="      -5924.8300" DelE="          0.0000"
Ni    -0.02735808   -0.06811996   -3.49915665       1
Cr     3.53072000   -0.08976300    0.01122693       2
Ni    -3.60288362   -0.09647670    0.02890110       3
Cr     0.04173293    3.31415786   -0.05229438       4
Ni    -0.03094745   -3.67043431    0.03438393       5
Co    -0.02366646   -0.08680437    3.53482846       6
Ni     1.76566327   -0.07026376   -1.71998202       7
Ni     0.00819933   -1.85031901    1.78731307       8
Cr     0.07793355    1.64234224    1.73547298       9
Co     1.76124468   -0.06170240    1.72113217      10
Co     0.01499387    1.66355609   -1.66502955      11
Ni    -1.85128927    1.68177832    0.03206336      12
Cr    -1.78998339   -0.10901047    1.75830071      13
Cr    -0.04024004   -1.82806625   -1.68013811      14
Co     1.75173448   -1.89093266    0.01425584      15
Co    -1.82889232   -0.09993763   -1.73805682      16
Co    -1.79404379   -1.84406048    0.04925759      17
Cr     0.00000000    0.00000000    0.00000000      18
          18
Lattice="  24.8920   0.0000   0.0000   0.0000  24.8920   0.0000   0.0000   0.0000  24.8920 " ConfE="      -5924.1638" DelE="          0.6662"
Ni    -0.03150330   -0.09561676   -3.56585363       1
Cr     3.55565275   -0.12286836   -0.00596607       2
Ni    -3.58435243   -0.09005942    0.02307583       3
Cr     0.00772497    3.41455681   -0.03810150       4
Ni    -0.02203415   -3.67646416    0.02233388       5
Co    -0.04063471   -0.12568803    3.59091057       6
Ni     1.78188332   -0.14387815   -1.85326226       7
Ni     0.01901889   -1.84699256    1.76837157       8
Cr    -0.03253699    1.63127426    1.88698341       9
Co     1.77606930   -0.14344227    1.82310197      10
Co    -0.03794449    1.65305436   -1.79854799      11
Ni    -1.73244665    1.64787159    0.01646475      12
Cr    -1.67909725   -0.13414486    1.65305937      13
Cr    -0.06091505   -1.69927458   -1.57889177      14
Co     1.72025856   -1.79208843   -0.00444913      15
Co    -1.75539352   -0.11737759   -1.71419913      16
Co    -1.77684150   -1.84851286    0.04421227      17
Cr     1.06455254    1.00492029    0.01141115      18
          18
Lattice="  24.8920   0.0000   0.0000   0.0000  24.8920   0.0000   0.0000   0.0000  24.8920 " ConfE="      -5924.6090" DelE="          0.2210"
Ni    -0.03425165   -0.08010884   -3.52681956       1
Cr     3.58305012   -0.13572172   -0.01168390       2
Ni    -3.61029868   -0.09677556    0.02225293       3
Cr    -0.02874297    3.41897579   -0.03180804       4
Ni    -0.02992096   -3.67926935    0.03786171       5
Co    -0.02123678   -0.10463768    3.57705474       6
Ni     1.72640829   -0.12543432   -1.72957912       7
Ni     0.00739787   -1.83941492    1.77941354       8
Cr     0.03217364    1.56036999    1.72985114       9
Co     1.75148174   -0.09052855    1.73847860      10
Co     0.01957146    1.64878172   -1.65788309      11
Ni    -1.78529515    1.63292426    0.02549966      12
Cr    -1.75005383   -0.12609384    1.71780845      13
Cr    -0.08536580   -1.79268497   -1.62897229      14
Co     1.73800824   -1.85663611    0.01757870      15
Co    -1.79397352   -0.12607307   -1.72929686      16
Co    -1.77249222   -1.82452906    0.05010471      17
Cr     1.72169320    1.60744645   -0.00668835      18
