          19
Lattice="  24.8920   0.0000   0.0000   0.0000  24.8920   0.0000   0.0000   0.0000  24.8920 " ConfE="      -5923.7160" DelE="          0.0000"
Cr    -1.41243009    3.30106677    1.61515752       1
Cr     0.08379468    0.01066362    3.44809726       2
Co     0.09466796    3.52395144   -0.08901542       3
Cr     0.11654951   -3.64199400   -0.03990986       4
Ni     0.06301827   -0.06606738   -3.65815658       5
Ni     3.58603121   -0.01129347   -0.08039540       6
Cr    -3.45380350    0.00271349   -0.10389804       7
Ni     1.79119853   -0.00655204    1.72318176       8
Cr    -1.58668610    0.08448224    1.62978523       9
Ni     1.77987176    1.75453994   -0.06643508      10
Ni     0.09355219   -1.82871486    1.69929209      11
Ni     1.80974188   -0.02590551   -1.87309766      12
Ni     0.05676306    1.71087795   -1.88009654      13
Ni     0.07788875   -1.81928513   -1.84664543      14
Co    -1.75877808   -0.05928436   -1.83925592      15
Ni    -1.67971368   -1.81646798   -0.08348779      16
Ni     1.84625391   -1.78766092   -0.07990285      17
Co    -1.69621555    1.73343355   -0.07566264      18
Co     0.00000000    0.00000000    0.00000000      19
          19
Lattice="  24.8920   0.0000   0.0000   0.0000  24.8920   0.0000   0.0000   0.0000  24.8920 " ConfE="      -5923.3808" DelE="          0.3352"
Cr    -1.39294878    3.27145147    1.59832439       1
Cr     0.08948402    0.03427826    3.38097790       2
Co     0.10732694    3.51196434   -0.10478333       3
Cr     0.11836089   -3.64668424   -0.02523386       4
Ni     0.07180533   -0.06095774   -3.66011722       5
Ni     3.63046408   -0.02057335   -0.08499675       6
Cr    -3.51223447   -0.00055607   -0.12532798       7
Ni     1.95359879   -0.07347930    1.77553304       8
Cr    -1.82208859    0.01394898    1.71566596       9
Ni     1.89186713    1.77009377   -0.08812343      10
Ni     0.09467864   -1.77934155    1.68872060      11
Ni     1.81254814   -0.02071341   -1.85056331      12
Ni     0.05895633    1.68647963   -1.82190171      13
Ni     0.07996369   -1.78920936   -1.81015319      14
Co    -1.75615797   -0.04303376   -1.81290315      15
Ni    -1.65824472   -1.75477743   -0.06282447      16
Ni     1.84228322   -1.76274657   -0.06803350      17
Co    -1.80824900    1.78348576   -0.12463614      18
Co    -0.01065621    0.52579551    0.63284934      19
          19
Lattice="  24.8920   0.0000   0.0000   0.0000  24.8920   0.0000   0.0000   0.0000  24.8920 " ConfE="      -5924.3763" DelE="         -0.6602"
Cr    -1.57390471    3.43058841    1.61832259       1
Cr     0.08342260   -0.02462543    3.50717451       2
Co     0.07479061    3.53491912   -0.08976651       3
Cr     0.12489169   -3.65834787   -0.03659612       4
Ni     0.06688497   -0.07006237   -3.67486979       5
Ni     3.61765318   -0.02166693   -0.09397144       6
Cr    -3.50161442   -0.00081875   -0.11076494       7
Ni     1.81840391   -0.03558236    1.70366320       8
Cr    -1.66042210    0.02769267    1.63715728       9
Ni     1.81160560    1.72586522   -0.11071192      10
Ni     0.08562995   -1.76121891    1.66635364      11
Ni     1.81275100   -0.03465621   -1.88351579      12
Ni     0.05448635    1.67913833   -1.84434717      13
Ni     0.08111256   -1.81204171   -1.83607189      14
Co    -1.75314455   -0.07030942   -1.82889615      15
Ni    -1.65439686   -1.77728628   -0.08200567      16
Ni     1.83996210   -1.77609722   -0.08896797      17
Co    -1.69212831    1.66330225   -0.07154758      18
Co     0.06523229    1.69487551    1.66149690      19
