          18
Lattice="  24.8920   0.0000   0.0000   0.0000  24.8920   0.0000   0.0000   0.0000  24.8920 " ConfE="      -5949.3379" DelE="          0.0000"
Cr     3.42163199   -0.05684756    0.11612881       1
Ni    -0.08576309    0.01358790   -3.47059395       2
Ni    -3.66944076    0.03193200    0.09443194       3
Co    -0.03996948   -0.01378640    3.66497530       4
Cr    -0.02592774   -3.42644103    0.05477095       5
Ni    -0.11659322    3.52654484    0.09086088       6
Co     1.74511572   -1.69193323    0.03357522       7
Cr     1.64854350    1.69767645    0.12308492       8
Cr    -0.02268297   -1.67717511   -1.64594681       9
Cr    -0.09982485    1.60341196   -1.64234701      10
Co     1.68464099    0.00293044    1.89851555      11
Co    -1.90203055   -0.02503001   -1.68398995      12
Ni    -1.86000481    0.01674486    1.87459399      13
Co    -0.07512644   -1.74694242    1.83187580      14
Ni    -0.10058734    1.75339516    1.87240490      15
Co    -1.86893189   -1.74334092    0.09305652      16
Co    -1.85544574    1.76502736    0.08125942      17
Co     0.00000000    0.00000000    0.00000000      18
          18
Lattice="  24.8920   0.0000   0.0000   0.0000  24.8920   0.0000   0.0000   0.0000  24.8920 " ConfE="      -5948.9013" DelE="          0.4366"
Cr     3.36832343   -0.04408272    0.09229338       1
Ni    -0.09142877    0.01388038   -3.45556220       2
Ni    -3.66751292    0.02964785    0.07893129       3
Co    -0.02323068   -0.01727125    3.64681623       4
Cr    -0.03486629   -3.49514834    0.07715244       5
Ni    -0.12328116    3.57324157    0.08737722       6
Co     1.77197501   -1.87034028    0.09099912       7
Cr     1.70885665    1.88020603    0.19252583       8
Cr    -0.05174698   -1.82194689   -1.66929583       9
Cr    -0.16430852    1.77981486   -1.69944430      10
Co     1.68105779   -0.00009520    1.83077375      11
Co    -1.79810323   -0.01257591   -1.63761644      12
Ni    -1.83061309    0.01509124    1.83560286      13
Co    -0.06196609   -1.73757558    1.77924393      14
Ni    -0.08895078    1.74801043    1.83310207      15
Co    -1.84853422   -1.74719306    0.07412997      16
Co    -1.81650885    1.76326260    0.05550339      17
Co     0.65551623    0.04665474   -0.56468271      18
          18
Lattice="  24.8920   0.0000   0.0000   0.0000  24.8920   0.0000   0.0000   0.0000  24.8920 " ConfE="      -5949.7504" DelE="         -0.4125"
Cr     3.46818475   -0.05741145    0.13018519       1
Ni    -0.10134036    0.01798894   -3.50903588       2
Ni    -3.68001832    0.02459333    0.08453009       3
Co    -0.03259448   -0.01771448    3.66958329       4
Cr    -0.03803569   -3.45905095    0.06560608       5
Ni    -0.11622374    3.54407353    0.10036439       6
Co     1.65358438   -1.69783656    0.07810908       7
Cr     1.63514002    1.68460794    0.16645807       8
Cr    -0.08162865   -1.65661268   -1.60910362       9
Cr    -0.16216886    1.56341294   -1.54196803      10
Co     1.66728298    0.01903147    1.84081667      11
Co    -1.83096640   -0.02178484   -1.65584915      12
Ni    -1.85802044    0.01359231    1.86300893      13
Co    -0.08818837   -1.73001408    1.82062319      14
Ni    -0.10419524    1.73390052    1.85336801      15
Co    -1.84120216   -1.73164655    0.09099675      16
Co    -1.83219449    1.74965748    0.07863595      17
Co     1.64731259    0.02440550   -1.66668549      18
