          18
Lattice="  24.8920   0.0000   0.0000   0.0000  24.8920   0.0000   0.0000   0.0000  24.8920 " ConfE="      -5927.1014" DelE="          0.0000"
Cr    -0.09825667   -3.53961586   -0.03938116       1
Ni    -0.06644190    3.58376393   -0.07360229       2
Cr    -3.67779706    0.02520810   -0.01643023       3
Co     3.50890886   -0.00132202   -0.07486704       4
Co    -0.09899596   -0.02838492   -3.59125527       5
Cr    -0.04306456   -0.03953281    3.37267063       6
Ni    -1.83860412   -0.00364905   -1.72496431       7
Ni    -1.83884967   -0.01235929    1.67238199       8
Ni     1.78070187   -1.79975605   -0.02837502       9
Cr    -0.11088430   -1.76552431   -1.72832781      10
Co    -0.11390466   -1.80458742    1.60751272      11
Ni    -0.08484416    1.79920804   -1.81454177      12
Cr    -1.85450746    1.83705370   -0.00826883      13
Co     1.73063745    1.80362100   -0.03010045      14
Co    -0.05626794    1.81092070    1.70680032      15
Cr     1.70175211    0.01726268   -1.80096793      16
Co     1.70298699   -0.00237248    1.72148645      17
Cr     0.00000000    0.00000000    0.00000000      18
          18
Lattice="  24.8920   0.0000   0.0000   0.0000  24.8920   0.0000   0.0000   0.0000  24.8920 " ConfE="      -5926.2753" DelE="          0.8261"
Cr    -0.03360809   -3.57493180   -0.05234618       1
Ni    -0.07749286    3.58611063   -0.08036932       2
Cr    -3.57830705    0.07180603   -0.04000124       3
Co     3.50828608   -0.02435236   -0.07811588       4
Co    -0.08355830    0.00659591   -3.66003396       5
Cr    -0.00842116   -0.01086009    3.48622326       6
Ni    -1.88616383    0.04777139   -1.91865419       7
Ni    -1.82196082    0.05287268    1.80655108       8
Ni     1.69166804   -1.78239404   -0.04198486       9
Cr    -0.05239215   -1.77171927   -2.02130363      10
Co    -0.02621542   -1.80340265    1.82231476      11
Ni    -0.11011218    1.76238273   -1.80297425      12
Cr    -1.82007977    1.79987820   -0.01321712      13
Co     1.66561279    1.73126398   -0.04528217      14
Co    -0.06958084    1.77342662    1.68052480      15
Cr     1.60862908    0.02649257   -1.70548878      16
Co     1.62930608   -0.00191892    1.68712945      17
Cr    -0.70652899   -0.79213381   -0.04098550      18
          18
Lattice="  24.8920   0.0000   0.0000   0.0000  24.8920   0.0000   0.0000   0.0000  24.8920 " ConfE="      -5926.7673" DelE="          0.3341"
Cr    -0.07275405   -3.59117366   -0.05876930       1
Ni    -0.07071377    3.59856952   -0.07292714       2
Cr    -3.68505083    0.02765554   -0.01615483       3
Co     3.53821525   -0.00277137   -0.06798041       4
Co    -0.08056709   -0.01963769   -3.61202722       5
Cr    -0.02871733   -0.02908757    3.43115811       6
Ni    -1.80136997    0.01581045   -1.73366763       7
Ni    -1.80608306    0.01876244    1.69301090       8
Ni     1.73456491   -1.76339503   -0.00957133       9
Cr    -0.02924483   -1.70940419   -1.72472974      10
Co    -0.08288043   -1.77113999    1.64507781      11
Ni    -0.07850666    1.78213684   -1.78271290      12
Cr    -1.83341022    1.80892360    0.00595925      13
Co     1.71013993    1.78193989   -0.02454553      14
Co    -0.06450271    1.78695774    1.67765439      15
Cr     1.66902761    0.03872706   -1.71326660      16
Co     1.67269217    0.02985982    1.72380399      17
Cr    -1.79673078   -1.79404330    0.01395819      18
