          18
Lattice="  24.8920   0.0000   0.0000   0.0000  24.8920   0.0000   0.0000   0.0000  24.8920 " ConfE="      -5945.5906" DelE="          0.0000"
Ni    -0.02513037    0.01312735    3.51731982       1
Co    -0.05873896    0.09089380   -3.48516187       2
Cr    -0.02072145    3.54269091    0.06632241       3
Ni    -3.54010975    0.02582969   -0.03908928       4
Co     0.01055202   -3.56682926   -0.00246753       5
Co     3.47556721    0.00004054   -0.04010026       6
Cr    -1.64316369    0.12299663   -1.75534960       7
Co    -1.68470116    1.78195908   -0.06225371       8
Ni    -0.04887623   -1.76815509    1.73976787       9
Cr     1.64519310    0.10759547   -1.76203345      10
Cr     1.71390094    1.78126676    0.00474294      11
Ni    -0.02214317   -1.79333945   -1.78470896      12
Co    -1.81045350    0.02738492    1.73739065      13
Co    -0.01404405    1.76677987    1.77026309      14
Co     1.76589366   -0.02076812    1.72407788      15
Co    -1.81986259   -1.76115064   -0.04394969      16
Co     1.77109917   -1.78161014   -0.02804692      17
Cr     0.00000000    0.00000000    0.00000000      18
          18
Lattice="  24.8920   0.0000   0.0000   0.0000  24.8920   0.0000   0.0000   0.0000  24.8920 " ConfE="      -5944.8257" DelE="          0.7649"
Ni    -0.03307692    0.02821984    3.48667458       1
Co    -0.06689978    0.06586871   -3.51500146       2
Cr    -0.01789665    3.55890294    0.07777064       3
Ni    -3.64073035    0.01422177    0.00110533       4
Co     0.00480460   -3.56507872   -0.01293492       5
Co     3.56385824   -0.01981314   -0.01768151       6
Cr    -1.92216003   -0.02467893   -1.75296315       7
Co    -1.84039578    1.78033739    0.00538586       8
Ni    -0.06437906   -1.73083546    1.69261127       9
Cr     1.85831903   -0.05371105   -1.78990597      10
Cr     1.86984102    1.74961722    0.09585164      11
Ni    -0.03930501   -1.68984145   -1.74612872      12
Co    -1.81881107    0.02656149    1.69302688      13
Co    -0.02060657    1.72255469    1.62067204      14
Co     1.73065890   -0.01332176    1.64078808      15
Co    -1.82873590   -1.70973932   -0.05306721      16
Co     1.75369001   -1.72591633   -0.04657215      17
Cr    -0.02020646    1.16557926   -1.19748032      18
          18
Lattice="  24.8920   0.0000   0.0000   0.0000  24.8920   0.0000   0.0000   0.0000  24.8920 " ConfE="      -5945.1461" DelE="          0.4445"
Ni    -0.02982085    0.02374405    3.49763580       1
Co    -0.04815883    0.04744932   -3.55696469       2
Cr    -0.01544746    3.59179132    0.09565545       3
Ni    -3.60099614    0.02137851   -0.01410990       4
Co     0.00935324   -3.59040588   -0.00243511       5
Co     3.53328817   -0.00507731   -0.01769182       6
Cr    -1.70454279    0.01491692   -1.67113801       7
Co    -1.73213659    1.75620115   -0.02753462       8
Ni    -0.06534493   -1.72415309    1.68482141       9
Cr     1.69709970    0.00115460   -1.69677776      10
Cr     1.72422739    1.73550791    0.05534410      11
Ni    -0.02772428   -1.74999675   -1.75829957      12
Co    -1.82732347    0.02273093    1.72309740      13
Co    -0.01967831    1.73566276    1.68353717      14
Co     1.73547690   -0.01265979    1.66592474      15
Co    -1.83586348   -1.74345385   -0.04691503      16
Co     1.76258641   -1.75977415   -0.02724764      17
Cr    -0.01244867    1.72524433   -1.68348689      18
