          19
Lattice="  24.8920   0.0000   0.0000   0.0000  24.8920   0.0000   0.0000   0.0000  24.8920 " ConfE="      -5923.5808" DelE="          0.0000"
Ni    -0.01343815   -3.53188943   -0.01994593       1
Co    -3.52419963    0.02031206   -0.01356132       2
Ni     3.56709521    0.01632898    0.01429376       3
Ni    -0.00643028    0.00465662   -3.54806786       4
Ni    -0.00926259    0.00969934    3.55458082       5
Co    -0.00118640    3.55835658   -0.02492505       6
Ni    -1.76413555   -1.76912989   -0.03200326       7
Ni    -0.03273455   -1.76980604   -1.77226332       8
Cr    -0.01827917   -1.78668838    1.76243739       9
Cr     1.78675229   -1.77514076   -0.06523095      10
Cr    -1.79841729    0.07307944   -1.78548884      11
Cr    -1.77838628   -0.01857743    1.79982861      12
Co     1.77061396    0.02661783   -1.77192134      13
Ni     1.75542612   -0.00918309    1.76549206      14
Ni    -1.77636151    1.78951415    0.01624359      15
Co    -0.01300776    1.77871015   -1.78032076      16
Co    -0.00192515    1.77068919    1.78054462      17
Co     1.77370182    1.79507376   -0.00048109      18
Co     0.00000000    0.00000000    0.00000000      19
          19
Lattice="  24.8920   0.0000   0.0000   0.0000  24.8920   0.0000   0.0000   0.0000  24.8920 " ConfE="      -5919.1013" DelE="          4.4794"
Ni     0.03081463   -3.66857830   -0.37165815       1
Co    -3.58918434    0.04585594   -0.01487222       2
Ni     3.64022139    0.03050148   -0.04761878       3
Ni     0.01718981    0.02948623   -3.60954713       4
Ni    -0.05093864    0.12283051    3.79014788       5
Co    -0.01016485    3.55498676   -0.01424098       6
Ni    -1.30901983   -0.82963932   -0.07305225       7
Ni    -0.03599865   -1.74213293   -1.83167797       8
Cr    -0.89377256   -2.64127099    1.35495063       9
Cr     1.69223998   -1.67017857   -0.04682005      10
Cr    -1.83300057    0.25862157   -2.00061429      11
Cr    -1.94159884    0.07166713    2.01955179      12
Co     1.70500275    0.02400879   -1.69909124      13
Ni     2.15193478    0.26779972    1.77133547      14
Ni    -1.74095721    1.70822663    0.04418441      15
Co    -0.03572498    1.75136105   -1.77078936      16
Co     0.00474934    1.68436213    1.78786394      17
Co     1.76266098    1.81870793   -0.03078762      18
Co     0.27750613   -0.93674764    1.75901637      19
          19
Lattice="  24.8920   0.0000   0.0000   0.0000  24.8920   0.0000   0.0000   0.0000  24.8920 " ConfE="      -5923.6963" DelE="         -0.1156"
Ni    -0.00736809   -3.52328477   -0.00531161       1
Co    -3.51219408    0.01549986   -0.01133305       2
Ni     3.56447164    0.01744770    0.01753020       3
Ni    -0.00598487    0.00029573   -3.54332415       4
Ni    -0.00445543    0.01198254    3.56089753       5
Co     0.00082274    3.55457136   -0.02583691       6
Ni    -0.02370744   -0.01070707    0.02017596       7
Ni    -0.04493585   -1.77614446   -1.75095827       8
Cr    -1.84870078   -1.82963091   -0.05700415       9
Cr     1.81749624   -1.80432578   -0.05206471      10
Cr    -1.80614773    0.06672107   -1.78891423      11
Cr    -1.78445794   -0.04802170    1.81816474      12
Co     1.76524855    0.01921805   -1.76401165      13
Ni     1.76229251   -0.00747154    1.76690322      14
Ni    -1.78035285    1.78552073    0.02293714      15
Co    -0.01615335    1.77719282   -1.77989335      16
Co    -0.00041147    1.78225613    1.78553853      17
Co     1.77936557    1.80478245    0.00366334      18
Co    -0.00879033   -1.77965806    1.77044418      19
