          18
Lattice="  24.8920   0.0000   0.0000   0.0000  24.8920   0.0000   0.0000   0.0000  24.8920 " ConfE="      -5945.7430" DelE="          0.0000"
Cr     3.50298937    0.01191817   -0.06974346       1
Co    -0.02807917   -3.44835708   -0.14675319       2
Co    -3.55621313    0.05125583   -0.09771718       3
Ni    -0.01518902    3.60906491   -0.07196468       4
Cr     0.03035051    0.03485729   -3.68324597       5
Co     0.00852765    0.08242974    3.40695804       6
Co     1.74901187    0.01644156   -1.82321398       7
Co     1.77487996    0.01109351    1.59691031       8
Cr     0.11238854   -1.69619917   -1.76049056       9
Co    -0.01283736   -1.69583457    1.61005199      10
Cr     1.78073264    1.85885941   -0.01635783      11
Ni    -1.81435181   -1.72101536   -0.11030266      12
Ni    -1.74882611    1.83725066   -0.08683506      13
Ni     0.01324110    1.82508467   -1.85641327      14
Cr     0.01032182    1.77851346    1.75314641      15
Ni    -1.74358780    0.07617968   -1.87011360      16
Co    -1.80460243    0.04581656    1.68736007      17
Cr     0.00000000    0.00000000    0.00000000      18
          18
Lattice="  24.8920   0.0000   0.0000   0.0000  24.8920   0.0000   0.0000   0.0000  24.8920 " ConfE="      -5945.1403" DelE="          0.6026"
Cr     3.51407879    0.02296564   -0.08814380       1
Co    -0.01317418   -3.42615169   -0.13078498       2
Co    -3.55971119    0.03602934   -0.10595466       3
Ni    -0.00900319    3.60473959   -0.06956906       4
Cr     0.01956583    0.08493119   -3.74546557       5
Co     0.00511124    0.07882781    3.46552198       6
Co     1.78264981    0.07980969   -1.94542091       7
Co     1.80501444    0.03907826    1.71994274       8
Cr     0.03205147   -1.71693412   -1.95411366       9
Co    -0.05690189   -1.72380484    1.75004175      10
Cr     1.76876098    1.81357716   -0.02544559      11
Ni    -1.73998058   -1.68600467   -0.11353606      12
Ni    -1.69792509    1.78920788   -0.09225319      13
Ni     0.03043174    1.80770797   -1.85398608      14
Cr     0.02789587    1.63820314    1.66833256      15
Ni    -1.69686219    0.06782508   -1.86863651      16
Co    -1.74197540    0.05020682    1.66803121      17
Cr     0.75864598   -0.80863107   -0.10374461      18
          18
Lattice="  24.8920   0.0000   0.0000   0.0000  24.8920   0.0000   0.0000   0.0000  24.8920 " ConfE="      -5945.9431" DelE="         -0.2001"
Cr     3.58264684    0.06643180   -0.09070428       1
Co    -0.03524595   -3.49941304   -0.13144756       2
Co    -3.57596639    0.04390671   -0.09716138       3
Ni    -0.01208549    3.61307924   -0.07039599       4
Cr     0.02752809    0.04999258   -3.69657739       5
Co     0.00275796    0.08620254    3.44805408       6
Co     1.73151649    0.04789814   -1.83046446       7
Co     1.72882098    0.05318392    1.58877462       8
Cr     0.05252844   -1.65208482   -1.80736082       9
Co    -0.01588032   -1.66439796    1.60419128      10
Cr     1.75793332    1.79693654   -0.01687421      11
Ni    -1.74318322   -1.67332742   -0.11633361      12
Ni    -1.71214465    1.80349083   -0.08130002      13
Ni     0.01215111    1.82058149   -1.85097115      14
Cr     0.00797022    1.72536295    1.71429547      15
Ni    -1.73652846    0.08477549   -1.86873683      16
Co    -1.76654610    0.06322771    1.68274372      17
Cr     1.77361776   -1.69408110   -0.10113892      18
