          18
Lattice="  24.8920   0.0000   0.0000   0.0000  24.8920   0.0000   0.0000   0.0000  24.8920 " ConfE="      -5922.5309" DelE="          0.0000"
Cr    -0.01311976    3.47650500   -0.03493226       1
Co     3.49395961   -0.03091042    0.01144489       2
Ni    -0.05711397   -3.60345903   -0.00958012       3
Co    -3.61200139   -0.06838365   -0.00447765       4
Ni    -0.02450268   -0.06985442   -3.51283352       5
Cr     0.00533801   -0.02093985    3.50221385       6
Cr     0.07004363    1.68182450   -1.64737260       7
Cr     0.05053325    1.68935817    1.59996217       8
Co     1.78577763   -0.04843651   -1.73393220       9
Cr     1.77740730   -0.03578405    1.66991206      10
Cr    -1.93412075    1.69434811   -0.11703903      11
Co     1.76542121   -1.83914213    0.02360199      12
Ni    -1.81873721   -1.84762783   -0.02035009      13
Co    -1.81167744   -0.03889957   -1.78807042      14
Ni    -1.81141205   -0.05466235    1.74909330      15
Ni    -0.01384793   -1.82921194   -1.76328248      16
Co    -0.00324281   -1.79579810    1.77425619      17
Co     0.00000000    0.00000000    0.00000000      18
          18
Lattice="  24.8920   0.0000   0.0000   0.0000  24.8920   0.0000   0.0000   0.0000  24.8920 " ConfE="      -5919.2243" DelE="          3.3066"
Cr    -0.05029298    3.64431138   -0.12781329       1
Co     3.50176862   -0.07254798    0.02829790       2
Ni    -0.06470377   -3.66124415   -0.02836092       3
Co    -3.63196969   -0.07849125   -0.02179236       4
Ni    -0.00834492   -0.10192689   -3.54734895       5
Cr    -0.13885804   -0.19527285    3.67055038       6
Cr     0.03649502    1.66902894   -1.75547999       7
Cr     1.14926123    1.26021477    2.46586151       8
Co     1.73460097   -0.04242401   -1.67148426       9
Cr     1.35344331   -0.30702687    0.91049293      10
Cr    -2.15520162    1.70388557   -0.25260874      11
Co     1.85078995   -2.10865303   -0.13410640      12
Ni    -1.76644080   -1.81520772   -0.03470476      13
Co    -1.78977802   -0.02636018   -1.78826797      14
Ni    -1.76061205   -0.04527731    1.69726414      15
Ni     0.01090909   -1.81898898   -1.74398228      16
Co    -0.02595187   -1.87485955    1.74303953      17
Co    -0.10003153    1.48522412    0.65613280      18
          18
Lattice="  24.8920   0.0000   0.0000   0.0000  24.8920   0.0000   0.0000   0.0000  24.8920 " ConfE="      -5922.9699" DelE="         -0.4390"
Cr    -0.01281510    3.40017271   -0.01379509       1
Co     3.46100571   -0.02348121    0.01886021       2
Ni    -0.05725547   -3.60760097   -0.01335735       3
Co    -3.58836563   -0.05953314   -0.00293472       4
Ni    -0.02726465   -0.07576991   -3.53890641       5
Cr     0.01064893   -0.02515959    3.52961627       6
Cr     0.02968932    1.70428354   -1.74694593       7
Cr     1.75967632   -0.00907671    1.69224279       8
Co     1.76434519   -0.03313290   -1.73127060       9
Cr     0.02286690    0.00022589   -0.01830170      10
Cr    -1.90706179    1.71306357   -0.06904803      11
Co     1.74988540   -1.83417720    0.02158780      12
Ni    -1.80814083   -1.84085497   -0.01708572      13
Co    -1.79697268   -0.03916613   -1.78392205      14
Ni    -1.80318096   -0.06192591    1.75616807      15
Ni    -0.01454807   -1.82558363   -1.77054300      16
Co    -0.00588478   -1.80707437    1.77065235      17
Co    -0.00326350    1.70067843    1.69669260      18
