          18
Lattice="  24.8920   0.0000   0.0000   0.0000  24.8920   0.0000   0.0000   0.0000  24.8920 " ConfE="      -5941.7486" DelE="          0.0000"
Cr     3.50252348   -0.06690736   -0.03537879       1
Co     0.05795959    3.46951673    0.03587600       2
Ni    -3.54061496   -0.02882506   -0.01229632       3
Ni    -0.03925054   -3.60376709   -0.02553654       4
Co    -0.02765313   -0.04881667   -3.61363704       5
Co     0.01352424   -0.03690898    3.52576663       6
Ni     1.72014934   -0.04824953   -1.79789258       7
Cr     1.73587471    0.00420251    1.66195644       8
Ni    -0.03084736    1.73305785   -1.77810120       9
Cr     0.01355789    1.72191715    1.71030652      10
Ni     1.69798978   -1.84919879   -0.04652813      11
Cr    -1.80116607    1.77807488    0.00649525      12
Ni    -1.80011825   -1.80936930   -0.01846406      13
Co    -0.10361141   -1.78363688   -1.82535802      14
Cr    -0.05178770   -1.74733848    1.77319442      15
Cr    -1.75508114   -0.12273500   -1.84297141      16
Co    -1.76843324   -0.00642074    1.75035311      17
Co     0.00000000    0.00000000    0.00000000      18
          18
Lattice="  24.8920   0.0000   0.0000   0.0000  24.8920   0.0000   0.0000   0.0000  24.8920 " ConfE="      -5941.1624" DelE="          0.5862"
Cr     3.44708898   -0.03294634   -0.02796702       1
Co     0.06932088    3.39680061    0.04084336       2
Ni    -3.54840618   -0.02373071   -0.01525938       3
Ni    -0.03100340   -3.59062950   -0.02951535       4
Co    -0.03689041   -0.05753895   -3.67424777       5
Co     0.00985980   -0.03094910    3.57812554       6
Ni     1.72404932   -0.08628337   -1.92595147       7
Cr     1.82632025   -0.07234191    1.86203586       8
Ni    -0.05186727    1.75169901   -1.90340104       9
Cr    -0.05157585    1.74030098    1.87586466      10
Ni     1.66640845   -1.77774384   -0.05035346      11
Cr    -1.73632870    1.72338042   -0.01221967      12
Ni    -1.75921830   -1.76083703   -0.02944293      13
Co    -0.10740340   -1.75648909   -1.83622046      14
Cr    -0.03859922   -1.65276568    1.72456072      15
Cr    -1.71052403   -0.08422649   -1.81351687      16
Co    -1.71275133    0.00938837    1.72056800      17
Co     0.71914838    0.69297723    0.08647279      18
          18
Lattice="  24.8920   0.0000   0.0000   0.0000  24.8920   0.0000   0.0000   0.0000  24.8920 " ConfE="      -5942.0472" DelE="         -0.2986"
Cr     3.54524384   -0.10247299   -0.02776003       1
Co     0.00742045    3.52838172    0.01518506       2
Ni    -3.56059030   -0.03220015   -0.01386251       3
Ni    -0.04144129   -3.60372918   -0.02471940       4
Co    -0.02718717   -0.05476127   -3.64018527       5
Co     0.01200691   -0.04079418    3.55973695       6
Ni     1.69544023   -0.07231608   -1.79899230       7
Cr     1.72874187   -0.03829381    1.68480559       8
Ni    -0.06055396    1.69371387   -1.77424408       9
Cr    -0.04784503    1.63553115    1.71401215      10
Ni     1.65128454   -1.79246439   -0.03634103      11
Cr    -1.75759680    1.73618006   -0.00089422      12
Ni    -1.78378422   -1.78552392   -0.02317693      13
Co    -0.12113648   -1.75543625   -1.81936067      14
Cr    -0.05958391   -1.69534481    1.75308125      15
Cr    -1.74938717   -0.13055140   -1.82331563      16
Co    -1.72959043   -0.00970809    1.71238036      17
Co     1.69256126    1.69165541   -0.01083238      18
