          18
Lattice="  24.8920   0.0000   0.0000   0.0000  24.8920   0.0000   0.0000   0.0000  24.8920 " ConfE="      -5932.3754" DelE="          0.0000"
Co     0.01490828   -3.56377429   -0.01384623       1
Cr     0.02128858    0.01733994    3.47166402       2
Co     3.58053482   -0.00575651   -0.05531291       3
Co    -3.49135452    0.03346748   -0.03718005       4
Cr    -0.00012327    3.57846513   -0.06413659       5
Cr    -0.00984319    0.03500643   -3.60839317       6
Ni     1.75604195   -1.78617328   -0.01595879       7
Ni     0.03663199   -1.79864224   -1.83775125       8
Co     1.76322451    0.00582172    1.75787246       9
Cr    -1.72907555    0.01844359    1.69916537      10
Ni    -0.03541568    1.81254610    1.71379304      11
Cr    -1.67001772   -1.82130012    0.02380545      12
Ni    -1.73855885   -0.00021384   -1.79986346      13
Co     1.81276887    0.02102761   -1.82990326      14
Cr    -1.76981682    1.84600262   -0.07131805      15
Cr     0.02862213    1.78837616   -1.81704290      16
Cr     1.83422463    1.73902112   -0.03917840      17
Co     0.00000000    0.00000000    0.00000000      18
          18
Lattice="  24.8920   0.0000   0.0000   0.0000  24.8920   0.0000   0.0000   0.0000  24.8920 " ConfE="      -5931.7565" DelE="          0.6190"
Co     0.02721606   -3.50729633    0.02243827       1
Cr    -0.01271720   -0.01630588    3.45324519       2
Co     3.64819045    0.02207928   -0.08189709       3
Co    -3.52631550    0.04226277   -0.04525728       4
Cr    -0.00943449    3.58797930   -0.05294319       5
Cr    -0.00924446    0.02707846   -3.61345206       6
Ni     1.89203561   -1.78845703   -0.05847776       7
Ni     0.05588715   -1.76382704   -1.77180001       8
Co     1.93183464    0.07951520    1.76590119       9
Cr    -1.90685444    0.12063625    1.75816153      10
Ni    -0.03521760    1.73485733    1.68565582      11
Cr    -1.80584934   -1.88237629   -0.05253131      12
Ni    -1.71095072   -0.01208085   -1.74567624      13
Co     1.81729024    0.03424640   -1.81163065      14
Cr    -1.74168420    1.81256748   -0.06207182      15
Cr     0.02018423    1.74543879   -1.77543423      16
Cr     1.76952796    1.68515933   -0.05289161      17
Co    -0.06560733   -0.82328649    0.89994881      18
          18
Lattice="  24.8920   0.0000   0.0000   0.0000  24.8920   0.0000   0.0000   0.0000  24.8920 " ConfE="      -5932.5634" DelE="         -0.1880"
Co     0.03871622   -3.59692715   -0.03293767       1
Cr    -0.00142534    0.05208290    3.52843900       2
Co     3.60914319    0.00697232   -0.06637169       3
Co    -3.51544290    0.03743113   -0.06144012       4
Cr    -0.00678795    3.60798587   -0.06539303       5
Cr    -0.00626747    0.04374112   -3.63780138       6
Ni     1.77888546   -1.75514147   -0.04053207       7
Ni     0.05394126   -1.76160145   -1.80054327       8
Co     1.77425209    0.04151218    1.71739381       9
Cr    -1.73956599    0.02870297    1.66086167      10
Ni    -0.03617001    1.75217298    1.66491041      11
Cr    -1.68422548   -1.78432909   -0.01328753      12
Ni    -1.69783414    0.00525064   -1.76571255      13
Co     1.80150209    0.04301110   -1.81556306      14
Cr    -1.73746889    1.82478596   -0.08171218      15
Cr     0.03696506    1.77383825   -1.79653094      16
Cr     1.78262922    1.71293146   -0.05743239      17
Co    -0.00748207   -1.70926508    1.69576191      18
