          18
Lattice="  24.8920   0.0000   0.0000   0.0000  24.8920   0.0000   0.0000   0.0000  24.8920 " ConfE="      -5949.1344" DelE="          0.0000"
Co    -3.51408407    0.05343663    0.00709969       1
Cr    -0.05884845   -3.51032533    0.06638337       2
Ni     3.60007194   -0.01143129   -0.00703991       3
Co     0.06096885    3.55913016   -0.02360675       4
Cr    -0.02720962    0.00607789   -3.51626727       5
Co     0.00150495    0.02164485    3.53272889       6
Co    -1.73794178   -0.01065233   -1.72726282       7
Ni    -1.75240801   -0.00607175    1.73323648       8
Cr    -0.07183543   -1.74804597   -1.66724955       9
Co    -0.02325094   -1.77518391    1.69588204      10
Cr    -1.69347471    1.87271064   -0.03875796      11
Ni     1.81462377   -1.76024722   -0.00260164      12
Co     1.80523350    1.77307019   -0.01096588      13
Co     0.03455012    1.76704756   -1.79664284      14
Ni     0.03056654    1.77555972    1.75380798      15
Cr     1.78515768    0.05048958   -1.79230769      16
Ni     1.82445081    0.00970604    1.77048505      17
Cr     0.00000000    0.00000000    0.00000000      18
          18
Lattice="  24.8920   0.0000   0.0000   0.0000  24.8920   0.0000   0.0000   0.0000  24.8920 " ConfE="      -5948.5568" DelE="          0.5776"
Co    -3.45272469    0.06887977    0.01654210       1
Cr    -0.04000019   -3.55435508    0.02028118       2
Ni     3.59067272   -0.03183269   -0.00716761       3
Co     0.05890780    3.56818321   -0.02363797       4
Cr     0.00203329    0.04929598   -3.58904882       5
Co     0.01027552    0.03588179    3.60078248       6
Co    -1.77265391    0.04977305   -1.86642527       7
Ni    -1.78772927    0.06417079    1.89364213       8
Cr     0.00516339   -1.78026028   -1.92642218       9
Co    -0.00373362   -1.78181495    1.81777798      10
Cr    -1.66994269    1.85672809   -0.03809493      11
Ni     1.71828555   -1.73798590   -0.02566832      12
Co     1.75752648    1.71723335   -0.02059039      13
Co     0.01901361    1.70062999   -1.75473330      14
Ni     0.00977241    1.72269960    1.71588344      15
Cr     1.67759172    0.05367231   -1.72858930      16
Ni     1.76963322   -0.01589628    1.74473078      17
Cr    -0.76185608   -0.75550785   -0.01534513      18
          18
Lattice="  24.8920   0.0000   0.0000   0.0000  24.8920   0.0000   0.0000   0.0000  24.8920 " ConfE="      -5949.1827" DelE="         -0.0483"
Co    -3.55092043    0.05854493    0.01550770       1
Cr     0.00713125   -3.58590377    0.02758732       2
Ni     3.61535258   -0.00925202   -0.00440008       3
Co     0.06612455    3.58783469   -0.02027608       4
Cr    -0.02603340    0.01453565   -3.55602878       5
Co     0.00456036    0.03692237    3.57431141       6
Co    -1.71068181    0.00411735   -1.70496829       7
Ni    -1.71616587    0.03704011    1.73821692       8
Cr     0.01623885   -1.63455506   -1.67041563       9
Co    -0.00804899   -1.75334569    1.71357905      10
Cr    -1.66510751    1.82410081   -0.04683463      11
Ni     1.76742326   -1.71358040   -0.00616309      12
Co     1.80219039    1.76772165   -0.01528380      13
Co     0.04306142    1.71824072   -1.74425707      14
Ni     0.03644064    1.75562815    1.71732985      15
Cr     1.76260730    0.09736229   -1.76492231      16
Ni     1.80546520    0.02240738    1.75278278      17
Cr    -1.70517372   -1.75466181    0.05480399      18
