          18
Lattice="  24.8920   0.0000   0.0000   0.0000  24.8920   0.0000   0.0000   0.0000  24.8920 " ConfE="      -5924.5686" DelE="          0.0000"
Co     3.56430454   -0.06268504    0.01843039       1
Co    -0.02755232    3.49568408    0.05620803       2
Co    -0.01417205   -0.02955602   -3.55524573       3
Cr     0.02410847   -3.59745010    0.06128486       4
Co    -3.63396911   -0.03590570    0.01385975       5
Co    -0.01382173   -0.02795443    3.50471719       6
Ni     1.74177773    0.00470511   -1.72675934       7
Co    -0.00018056    1.77637515   -1.70705421       8
Cr     1.82161779    0.01374416    1.69109137       9
Cr     0.04517087    1.73132282    1.70018542      10
Ni    -0.05003775   -1.79673695   -1.75099260      11
Ni    -1.82648619   -0.00526863   -1.74799244      12
Co     1.74989130   -1.84195434    0.04520726      13
Co    -1.83396268    1.73308771    0.06362157      14
Cr    -1.83239919   -1.77889659    0.06151195      15
Co    -0.03000306   -1.77124279    1.76559169      16
Cr    -1.84020188    0.01452618    1.75237842      17
Ni     0.00000000    0.00000000    0.00000000      18
          18
Lattice="  24.8920   0.0000   0.0000   0.0000  24.8920   0.0000   0.0000   0.0000  24.8920 " ConfE="      -5923.9251" DelE="          0.6435"
Co     3.53585298   -0.05621427    0.02052927       1
Co    -0.01626510    3.47604314    0.04699498       2
Co    -0.02946360   -0.04329167   -3.60563227       3
Cr     0.02359682   -3.59924972    0.06715744       4
Co    -3.64805152   -0.03046008    0.01014856       5
Co    -0.02891652   -0.03126581    3.53949735       6
Ni     1.75545415   -0.05110563   -1.88846196       7
Co    -0.06355094    1.77485000   -1.84917267       8
Cr     1.84316128   -0.13128537    1.91905161       9
Cr    -0.09015927    1.82630487    1.91161670      10
Ni    -0.04527987   -1.76516362   -1.73213608      11
Ni    -1.79573522    0.00025604   -1.73110712      12
Co     1.71562286   -1.77149969    0.04349188      13
Co    -1.76964154    1.69264759    0.06783243      14
Cr    -1.74029412   -1.69035946    0.06558520      15
Co    -0.05853943   -1.70581021    1.71948566      16
Cr    -1.80045828    0.03183075    1.72848458      17
Ni     0.94888944    0.90942827    0.08585987      18
          18
Lattice="  24.8920   0.0000   0.0000   0.0000  24.8920   0.0000   0.0000   0.0000  24.8920 " ConfE="      -5924.5306" DelE="          0.0380"
Co     3.62442729   -0.08157264    0.02328639       1
Co    -0.04065568    3.54938484    0.05760758       2
Co    -0.02186335   -0.04273755   -3.56634151       3
Cr     0.00830910   -3.64009334    0.06986318       4
Co    -3.66059298   -0.03098397    0.00824896       5
Co    -0.03257328   -0.04354415    3.54322772       6
Ni     1.70615480   -0.03880454   -1.72327922       7
Co    -0.03472186    1.74016691   -1.70669011       8
Cr     1.71482848   -0.08527259    1.70854532       9
Cr    -0.02007833    1.64222303    1.68371289      10
Ni    -0.05755693   -1.77656793   -1.68582507      11
Ni    -1.79820922   -0.01743505   -1.70028677      12
Co     1.73556942   -1.78117502    0.06466000      13
Co    -1.76646646    1.69711593    0.07658933      14
Cr    -1.82753373   -1.76754347    0.05900474      15
Co    -0.07742941   -1.70495326    1.68845832      16
Cr    -1.81806407   -0.00547474    1.71458004      17
Ni     1.74802889    1.68640638    0.00301784      18
