          18
Lattice="  24.8920   0.0000   0.0000   0.0000  24.8920   0.0000   0.0000   0.0000  24.8920 " ConfE="      -5938.0428" DelE="          0.0000"
Ni     3.55754043   -0.06809731    0.12638317       1
Ni     0.02280525   -0.09700808   -3.40257554       2
Ni     0.00147903   -3.56303760    0.13303515       3
Ni     0.03597145   -0.06033341    3.69636309       4
Cr     0.02503674    3.47372618    0.10002363       5
Cr    -3.48418282   -0.06124323    0.16588060       6
Ni     1.78117424    1.69097362    0.10113230       7
Ni     1.77713566   -1.76423497    0.07639232       8
Cr     0.00473954    1.65603172   -1.60752142       9
Ni    -1.79962244   -0.07954118   -1.66853207      10
Ni     1.80553514   -0.07088130    1.91826890      11
Co     0.01345365   -1.84677905   -1.70790674      12
Ni     0.02739020    1.69108028    1.87747486      13
Ni     0.02317420   -1.79519990    1.87839453      14
Co    -1.75143511    1.74442557    0.09684700      15
Co    -1.77165951   -1.81708891    0.13166971      16
Co    -1.78383324   -0.04713995    1.87768405      17
Co     0.00000000    0.00000000    0.00000000      18
          18
Lattice="  24.8920   0.0000   0.0000   0.0000  24.8920   0.0000   0.0000   0.0000  24.8920 " ConfE="      -5937.5116" DelE="          0.5312"
Ni     3.53602034   -0.06270631    0.11609065       1
Ni     0.02354040   -0.09956881   -3.37204409       2
Ni     0.00144814   -3.60379641    0.14422425       3
Ni     0.03986019   -0.06439600    3.69909798       4
Cr     0.01614590    3.52726317    0.14821795       5
Cr    -3.52318163   -0.05514654    0.15723867       6
Ni     1.80913891    1.80457226    0.14872556       7
Ni     1.81537398   -1.86283363    0.11610963       8
Cr    -0.03476142    1.84688294   -1.66500549       9
Ni    -1.74275248   -0.08788472   -1.62136476      10
Ni     1.79450702   -0.07129130    1.87362012      11
Co    -0.05988204   -2.00997823   -1.74857082      12
Ni     0.03136616    1.66247066    1.84238224      13
Ni     0.02726231   -1.78795383    1.85048054      14
Co    -1.69050999    1.70644566    0.08122658      15
Co    -1.75278962   -1.82422473    0.13204033      16
Co    -1.78122134   -0.05423462    1.85508797      17
Co     0.66332226   -0.01174102   -0.78327333      18
          18
Lattice="  24.8920   0.0000   0.0000   0.0000  24.8920   0.0000   0.0000   0.0000  24.8920 " ConfE="      -5938.1443" DelE="         -0.1015"
Ni     3.57654966   -0.06622474    0.14994526       1
Ni    -0.00128665   -0.08370656   -3.43938027       2
Ni     0.00164865   -3.59080369    0.13932744       3
Ni     0.03358701   -0.06544186    3.70819077       4
Cr     0.02816813    3.51595715    0.11256721       5
Cr    -3.51499822   -0.05539972    0.16635862       6
Ni     1.73742196    1.67577702    0.11272700       7
Ni     1.76487656   -1.78954805    0.11470986       8
Cr    -0.00043062    1.70351120   -1.63068863       9
Ni    -1.71857480   -0.08102977   -1.60600686      10
Ni     1.79455370   -0.07968799    1.90219288      11
Co    -0.00755101   -1.86429855   -1.69104461      12
Ni     0.01923683    1.65810758    1.85130985      13
Ni     0.01404288   -1.79232813    1.87180099      14
Co    -1.69602174    1.71719766    0.08461484      15
Co    -1.75757874   -1.81845534    0.14846400      16
Co    -1.79795176   -0.05060967    1.87018707      17
Co     1.75842798   -0.08819983   -1.64716920      18
