          18
Lattice="  24.8920   0.0000   0.0000   0.0000  24.8920   0.0000   0.0000   0.0000  24.8920 " ConfE="      -5927.5016" DelE="          0.0000"
Co     0.01731577   -3.55338319   -0.01188110       1
Cr     3.57099558    0.03302672   -0.05034589       2
Ni    -0.03133258    3.62172930   -0.00585147       3
Cr    -3.52690493   -0.00252385    0.00347383       4
Ni    -0.00746292    0.02735620   -3.52659439       5
Co     0.03280209   -0.01373397    3.53086593       6
Ni     0.01797700   -1.77658193   -1.73981200       7
Cr     0.16843236   -1.79233112    1.62068494       8
Ni     1.75644749    0.00524438   -1.73216863       9
Ni     1.79741846    0.03602364    1.72949604      10
Co    -1.82160055   -1.80677836    0.00318003      11
Cr     1.72177393    1.85930704   -0.01059024      12
Co    -1.79458204    1.79855875    0.02463937      13
Cr    -1.77585868    0.03871296   -1.72118778      14
Cr    -1.68962067   -0.03566581    1.70925833      15
Co     0.01148544    1.81896825   -1.76999117      16
Co    -0.00110309    1.80267593    1.77891825      17
Co     0.00000000    0.00000000    0.00000000      18
          18
Lattice="  24.8920   0.0000   0.0000   0.0000  24.8920   0.0000   0.0000   0.0000  24.8920 " ConfE="      -5926.7900" DelE="          0.7116"
Co     0.04805459   -3.50759292   -0.01856701       1
Cr     3.44985105   -0.00120033   -0.03257514       2
Ni    -0.01345408    3.63777514   -0.00426665       3
Cr    -3.51003551   -0.00944870    0.05623047       4
Ni    -0.02342984    0.03266067   -3.58278551       5
Co     0.00276836    0.01709321    3.58767834       6
Ni    -0.01398379   -1.82357650   -1.89555051       7
Cr     0.11114890   -1.83337271    1.86769497       8
Ni     1.75803211    0.04093893   -1.89397446       9
Ni     1.83945660    0.09436106    1.93401417      10
Co    -1.74560901   -1.81502931   -0.01135090      11
Cr     1.64562866    1.74610545   -0.01422007      12
Co    -1.74071428    1.79138671    0.01301111      13
Cr    -1.68371219    0.01677339   -1.64908886      14
Cr    -1.41192865   -0.02427871    1.44670123      15
Co     0.01964110    1.79986755   -1.76477335      16
Co     0.02052813    1.81009923    1.78578855      17
Co     0.71126960   -0.76199547    0.05399381      18
          18
Lattice="  24.8920   0.0000   0.0000   0.0000  24.8920   0.0000   0.0000   0.0000  24.8920 " ConfE="      -5927.7338" DelE="         -0.2322"
Co    -0.00108917   -3.58994137   -0.01706449       1
Cr     3.60522950    0.01134100   -0.03693820       2
Ni    -0.02164342    3.64544904   -0.00924212       3
Cr    -3.55890584    0.00473546    0.04511050       4
Ni    -0.01629016    0.03636395   -3.53924775       5
Co     0.02128798    0.01587346    3.53944596       6
Ni    -0.02668833   -1.73752821   -1.71829337       7
Cr     0.06094812   -1.78222002    1.68444147       8
Ni     1.72444343    0.03495554   -1.73532612       9
Ni     1.74657458    0.04221055    1.71402931      10
Co    -1.81398175   -1.82457112   -0.00124182      11
Cr     1.70647279    1.81244954   -0.02336851      12
Co    -1.77630158    1.80385089    0.00658221      13
Cr    -1.74817154    0.04770263   -1.65026258      14
Cr    -1.49617165   -0.01189901    1.44582912      15
Co     0.01229113    1.79928574   -1.73065969      16
Co     0.00447901    1.79730235    1.73376325      17
Co     1.76695988   -1.73170374   -0.00307669      18
