          18
Lattice="  24.8920   0.0000   0.0000   0.0000  24.8920   0.0000   0.0000   0.0000  24.8920 " ConfE="      -5923.0364" DelE="          0.0000"
Co    -0.02261331   -3.43735778   -0.05224668       1
Ni    -0.04165073   -0.00460455    3.45454864       2
Co    -0.00810104    3.59130246   -0.04863670       3
Ni    -0.04017419    0.07434709   -3.61761823       4
Co    -3.52505029    0.09599582   -0.05581478       5
Ni     3.51488495    0.06945989   -0.06184882       6
Co    -1.74278206   -1.66619096   -0.04246316       7
Co     1.69874433   -1.66146256   -0.03185375       8
Co    -1.76060310    0.03774938    1.69847323       9
Co     1.70215535   -0.01575242    1.72039733      10
Ni     0.00111053   -1.70202846   -1.86160007      11
Ni    -0.01933850    1.84267196    1.73785399      12
Ni    -0.02608550    1.82296233   -1.81418042      13
Cr    -1.80754363    0.06275279   -1.79279914      14
Cr     1.75116052    0.05408395   -1.83567940      15
Cr    -1.78413414    1.78580820    0.00655570      16
Co     1.73380759    1.82139168   -0.05009163      17
Cr     0.00000000    0.00000000    0.00000000      18
          18
Lattice="  24.8920   0.0000   0.0000   0.0000  24.8920   0.0000   0.0000   0.0000  24.8920 " ConfE="      -5922.2700" DelE="          0.7664"
Co    -0.01420886   -3.41629053   -0.02707065       1
Ni    -0.04562870    0.03095564    3.47652434       2
Co     0.02863302    3.52869051   -0.05323299       3
Ni    -0.05623632    0.06068676   -3.64156089       4
Co    -3.58682562    0.11127704   -0.06590673       5
Ni     3.52967720    0.07825160   -0.07293828       6
Co    -1.84958331   -1.69378423   -0.05838948       7
Co     1.81465386   -1.66213112   -0.06700246       8
Co    -1.88203450    0.09708341    1.74116801       9
Co     1.84702910    0.00748522    1.84542502      10
Ni     0.01683216   -1.67420742   -1.76737394      11
Ni    -0.01820112    1.79210014    1.77845113      12
Ni    -0.05923436    1.84375622   -1.93484992      13
Cr    -1.64078700    0.04273302   -1.63783969      14
Cr     1.74551724    0.01419291   -1.95321670      15
Cr    -1.64005745    1.68468257    0.01808273      16
Co     1.32537277    1.23427581   -0.12600013      17
Cr     0.00152388   -0.92339673    0.98928157      18
          18
Lattice="  24.8920   0.0000   0.0000   0.0000  24.8920   0.0000   0.0000   0.0000  24.8920 " ConfE="      -5923.5229" DelE="         -0.4864"
Co    -0.01337857   -3.46568596   -0.04967768       1
Ni    -0.03173492    0.07786651    3.48679234       2
Co     0.02718173    3.59384405   -0.05374006       3
Ni    -0.03003230    0.07992097   -3.61188747       4
Co    -3.53886651    0.09787541   -0.06370354       5
Ni     3.47368282    0.10532442   -0.08453215       6
Co    -1.76209088   -1.67403381   -0.05663938       7
Co     1.74697920   -1.71645121   -0.03636477       8
Co    -1.77254979    0.07417435    1.68967829       9
Co     1.73222641    0.02231557    1.71484406      10
Ni     0.00680410   -1.70540739   -1.82892580      11
Ni     0.00758180    1.83825756    1.69346407      12
Ni     0.02378156    1.84518419   -1.79625474      13
Cr    -1.76120514    0.08721022   -1.79001531      14
Cr     1.74978492    0.06555927   -1.84638873      15
Cr    -1.79856929    1.79818687   -0.01261422      16
Co     0.05233522    0.08696473   -0.07277053      17
Cr     0.03445753   -1.64869748    1.72199102      18
