          18
Lattice="  24.8920   0.0000   0.0000   0.0000  24.8920   0.0000   0.0000   0.0000  24.8920 " ConfE="      -5949.4176" DelE="          0.0000"
Co    -0.09072138    3.48850759   -0.01248076       1
Co     3.43019030   -0.03790308    0.02724362       2
Co    -0.07379382   -3.60623121    0.04805502       3
Ni    -3.63635288   -0.06000979    0.00550810       4
Cr     0.01282665   -0.11770745   -3.52512344       5
Co    -0.08679471   -0.10549799    3.56816745       6
Co    -0.05371093    1.70042326   -1.73478338       7
Ni    -0.01024698    1.73045937    1.74959113       8
Co     1.66723902   -0.04658493   -1.66428770       9
Co     1.67631378   -0.08693322    1.77401118      10
Ni    -1.85890116    1.70749187    0.00222335      11
Cr     1.72393396   -1.87000510    0.05957180      12
Cr    -1.86725490   -1.85000768    0.03317360      13
Cr    -1.78786389   -0.06891697   -1.79036197      14
Ni    -1.83419869   -0.04923737    1.77600324      15
Co    -0.06835993   -1.83987219   -1.70974968      16
Cr    -0.05414024   -1.83183425    1.76738576      17
Cr     0.00000000    0.00000000    0.00000000      18
          18
Lattice="  24.8920   0.0000   0.0000   0.0000  24.8920   0.0000   0.0000   0.0000  24.8920 " ConfE="      -5949.0430" DelE="          0.3746"
Co    -0.05955453    3.42103299    0.00192825       1
Co     3.38040066   -0.03568709    0.02268722       2
Co    -0.06286386   -3.61527729    0.04454843       3
Ni    -3.62512876   -0.05365060    0.01964822       4
Cr    -0.06328126   -0.13871223   -3.61719367       5
Co    -0.08608478   -0.12366215    3.63778721       6
Co    -0.09053148    1.72913871   -1.86338055       7
Ni    -0.08335479    1.76478144    1.92680562       8
Co     1.70255480   -0.08803464   -1.82545385       9
Co     1.68765719   -0.07628148    1.88546703      10
Ni    -1.78836279    1.67480857    0.01267717      11
Cr     1.69318494   -1.83451140    0.03660650      12
Cr    -1.77286613   -1.78207104    0.03690075      13
Cr    -1.69172780   -0.05431119   -1.71601492      14
Ni    -1.77917742   -0.04934959    1.76575053      15
Co    -0.06564236   -1.75738525   -1.66486047      16
Cr     0.02332472   -1.72839494    1.68937468      17
Cr     0.71423020    0.75605714    0.00974087      18
          18
Lattice="  24.8920   0.0000   0.0000   0.0000  24.8920   0.0000   0.0000   0.0000  24.8920 " ConfE="      -5949.8095" DelE="         -0.3919"
Co    -0.09827300    3.50727970   -0.01074615       1
Co     3.48993882   -0.09668421    0.04396219       2
Co    -0.07790167   -3.63930243    0.03995145       3
Ni    -3.63290427   -0.06372181    0.00595020       4
Cr    -0.00811871   -0.12094342   -3.56916581       5
Co    -0.08841234   -0.11772380    3.61535834       6
Co    -0.06966218    1.67030276   -1.75223697       7
Ni    -0.05810265    1.69391131    1.78826744       8
Co     1.62375561   -0.07456580   -1.62740580       9
Co     1.64313777   -0.10766898    1.77375707      10
Ni    -1.78979619    1.65071919   -0.00208966      11
Cr     1.59557153   -1.76888624    0.06397545      12
Cr    -1.78139887   -1.80028333    0.02079587      13
Cr    -1.75905906   -0.07052394   -1.78378932      14
Ni    -1.80991991   -0.07467374    1.77046813      15
Co    -0.09347914   -1.79547526   -1.67794252      16
Cr    -0.06750543   -1.82782510    1.77049926      17
Cr     1.63274357    1.65778039    0.04180421      18
