          23
Lattice="  24.8920   0.0000   0.0000   0.0000  24.8920   0.0000   0.0000   0.0000  24.8920 " ConfE="      -5925.3565" DelE="          0.0000"
Ni    -2.62129987    0.00856055    2.54891941       1
Co     2.65083364   -0.01034371   -2.70031906       2
Co    -2.65732298    1.75823831    0.78215574       3
Ni    -0.90529866    1.78099212    2.58018909       4
Co    -0.84369751   -1.73051255    2.55815395       5
Co    -2.62401568   -1.76051346    0.79823094       6
Ni     0.88736010    1.70596050   -2.63416023       7
Co     2.66830598    1.78618808   -0.90188265       8
Co     0.87562717   -1.78135664   -2.68871058       9
Ni     2.62724918   -1.78081639   -0.93805895      10
Co    -0.92890619    3.58752500    0.81261419      11
Cr    -0.98012467   -3.61092960    0.90437339      12
Ni     0.89828629   -3.62742482   -0.91772167      13
Co     0.88382501    3.56383145   -0.91382158      14
Cr    -2.58253416   -0.00729955   -0.89042243      15
Cr     0.80727076    0.02440637    2.53809459      16
Ni     2.55600532   -0.00494529    0.77370687      17
Co    -0.89319796   -0.01633660   -2.64250676      18
Ni     0.00000000    0.00000000    0.00000000      19
Co    -0.96389231    1.92296751   -0.96339008      20
Co     0.93936980    1.96272764    0.89204788      21
Cr     0.90333581   -1.94900387    0.89111365      22
Ni    -0.89791580   -1.90881879   -0.98604730      23
          23
Lattice="  24.8920   0.0000   0.0000   0.0000  24.8920   0.0000   0.0000   0.0000  24.8920 " ConfE="      -5925.3331" DelE="          0.0233"
Ni    -2.63699202    0.00920585    2.55899160       1
Co     2.66277165   -0.00856501   -2.71430323       2
Co    -2.65943462    1.75617084    0.78245786       3
Ni    -0.90107215    1.76949687    2.57364028       4
Co    -0.84311224   -1.72129600    2.56023262       5
Co    -2.62721070   -1.75156294    0.79594634       6
Ni     0.88601694    1.68811365   -2.61447864       7
Co     2.67119649    1.78318083   -0.90191209       8
Co     0.87550046   -1.77714655   -2.69501164       9
Ni     2.60739858   -1.76056031   -0.93939456      10
Co    -0.92495803    3.57552270    0.80820101      11
Cr    -0.97489050   -3.58759318    0.90144536      12
Ni     0.89875098   -3.62959126   -0.92378693      13
Co     0.88378176    3.56483415   -0.91449134      14
Cr    -2.61229902   -0.00930282   -0.90775706      15
Cr     0.84211453    0.03416843    2.58857915      16
Ni     2.54728350   -0.00251327    0.77768358      17
Co    -0.89910874   -0.01917704   -2.65089706      18
Ni    -0.20700914   -0.01400329    0.22863605      19
Co    -0.95057664    1.89619494   -0.96572859      20
Co     0.94940208    1.94460849    0.87646924      21
Cr     0.92034494   -1.94788419    0.87906221      22
Ni    -0.88411188   -1.88653613   -0.99464336      23
          23
Lattice="  24.8920   0.0000   0.0000   0.0000  24.8920   0.0000   0.0000   0.0000  24.8920 " ConfE="      -5925.8142" DelE="         -0.4577"
Ni    -2.67848675    0.01078529    2.58699385       1
Co     2.67629045   -0.01289630   -2.73061898       2
Co    -2.69244834    1.78639064    0.79330942       3
Ni    -0.91468593    1.77844804    2.59664016       4
Co    -0.87336387   -1.74711953    2.62051279       5
Co    -2.66628211   -1.78238241    0.82044423       6
Ni     0.89773003    1.68150333   -2.63000030       7
Co     2.69450496    1.77469385   -0.91756317       8
Co     0.86865784   -1.77299672   -2.70229858       9
Ni     2.61942503   -1.74225191   -0.93814586      10
Co    -0.91177280    3.53595834    0.80362848      11
Cr    -0.97311962   -3.52097669    0.91098228      12
Ni     0.87958371   -3.56458543   -0.86898593      13
Co     0.88178284    3.53038928   -0.90485387      14
Cr    -2.68975099    0.01182912   -0.96885465      15
Cr     0.88579904    0.05474173    2.62052760      16
Ni     2.63369968    0.00373681    0.79414445      17
Co    -0.90319175   -0.00921998   -2.68569753      18
Ni    -0.88008799    0.01135655    0.79429324      19
Co    -0.92710426    1.78330192   -0.94865536      20
Co     0.90759085    1.74544251    0.81194892      21
Cr     0.88801797   -1.73015521    0.86531402      22
Ni    -0.85143549   -1.72489694   -0.93433913      23
