          18
Lattice="  24.8920   0.0000   0.0000   0.0000  24.8920   0.0000   0.0000   0.0000  24.8920 " ConfE="      -5943.1094" DelE="          0.0000"
Ni     3.50844550    0.02040810    0.05325506       1
Ni    -0.03081251    3.55147581    0.06411884       2
Ni    -3.59349429    0.00260957    0.04227348       3
Co     0.04373232    0.02080759   -3.47223719       4
Co    -0.03493920    0.00539813    3.63179669       5
Co    -0.01885384   -3.52378922    0.05307424       6
Ni     1.77394842    1.78174788    0.05452456       7
Ni     1.74866705    0.00179422    1.86660470       8
Co     1.70347769   -1.76532180    0.04319501       9
Cr     0.06567552   -1.71731706   -1.71894466      10
Ni    -0.02266502    1.77026901    1.83038887      11
Cr     0.01581291    1.68947240   -1.71420659      12
Cr    -0.05170145   -1.73857616    1.80581245      13
Co    -1.80594030   -1.75975641   -0.00492798      14
Co    -1.80928382   -0.01629295    1.80878106      15
Cr    -1.83867663   -0.03660898   -1.73417527      16
Cr    -1.81012818    1.75216908    0.01246830      17
Co     0.00000000    0.00000000    0.00000000      18
          18
Lattice="  24.8920   0.0000   0.0000   0.0000  24.8920   0.0000   0.0000   0.0000  24.8920 " ConfE="      -5942.4442" DelE="          0.6652"
Ni     3.49525060    0.03187374    0.04973548       1
Ni    -0.03950876    3.60744511    0.08957392       2
Ni    -3.59896949    0.00304973    0.03085321       3
Co     0.03370439    0.01668029   -3.46236016       4
Co    -0.03448253    0.00950873    3.62899192       5
Co    -0.03100284   -3.56648408    0.06868656       6
Ni     1.80734259    1.88992708    0.10325796       7
Ni     1.72280881    0.00941045    1.81952129       8
Co     1.71139061   -1.84081856    0.10475690       9
Cr    -0.00180313   -1.91752695   -1.74858831      10
Ni    -0.02400408    1.76057379    1.79439571      11
Cr    -0.06591318    1.94683300   -1.75684188      12
Cr    -0.05879685   -1.69959327    1.74762186      13
Co    -1.77311711   -1.73219906   -0.01404086      14
Co    -1.77806962   -0.01647581    1.76983658      15
Cr    -1.76295530   -0.01739546   -1.70329159      16
Cr    -1.74897980    1.70307999    0.00802285      17
Co     0.78717669    0.04474591   -0.98747231      18
          18
Lattice="  24.8920   0.0000   0.0000   0.0000  24.8920   0.0000   0.0000   0.0000  24.8920 " ConfE="      -5943.0429" DelE="          0.0665"
Ni     3.54130919    0.02273533    0.07407496       1
Ni    -0.03781967    3.57111367    0.06959004       2
Ni    -3.61020580    0.00125489    0.03758981       3
Co    -0.00984868    0.01082804   -3.53679730       4
Co    -0.03588772    0.00667498    3.63876114       5
Co    -0.02592827   -3.54226750    0.05825858       6
Ni     1.75997701    1.78321607    0.08021706       7
Ni     1.72472627   -0.00624531    1.84047452       8
Co     1.65667071   -1.74100339    0.07027794       9
Cr     0.04679282   -1.69494004   -1.66463452      10
Ni    -0.03219714    1.74186005    1.79783539      11
Cr    -0.01518987    1.65476642   -1.65370336      12
Cr    -0.06823844   -1.70352900    1.76165982      13
Co    -1.77678570   -1.72265639   -0.00637175      14
Co    -1.79515564   -0.02223249    1.78954754      15
Cr    -1.78589767   -0.04302979   -1.70790960      16
Cr    -1.78999779    1.71697378    0.02085233      17
Co     1.70300464    0.02461876   -1.71292447      18
