          18
Lattice="  24.8920   0.0000   0.0000   0.0000  24.8920   0.0000   0.0000   0.0000  24.8920 " ConfE="      -5943.5625" DelE="          0.0000"
Ni     0.00517794    0.00454338   -3.40052867       1
Co     0.05101571    3.53466678    0.07672012       2
Co    -0.01287583   -0.00078321    3.66083277       3
Co    -0.01808323   -3.55495398    0.06414619       4
Cr     3.62201993   -0.03385575   -0.00294115       5
Cr    -3.56202018    0.00171793    0.04660504       6
Ni     1.77811808    1.74046465    0.05155759       7
Ni    -1.74927522    1.74799336    0.06357237       8
Ni    -0.00373719    1.73848125    1.87107391       9
Co     1.83636537   -0.03725010   -1.70872436      10
Co    -1.81052957   -0.04021566   -1.68268979      11
Ni    -0.01215177   -1.75998379    1.84252552      12
Ni     1.76881018   -1.78324751    0.05624800      13
Ni     1.79302148    0.00050973    1.84842582      14
Cr    -0.01620582   -1.87117339   -1.72537416      15
Co    -1.80143696   -1.77380080    0.06347799      16
Cr    -1.80143412   -0.02425398    1.83159736      17
Ni     0.00000000    0.00000000    0.00000000      18
          18
Lattice="  24.8920   0.0000   0.0000   0.0000  24.8920   0.0000   0.0000   0.0000  24.8920 " ConfE="      -5939.3372" DelE="          4.2253"
Ni     0.05025906   -0.02119262   -3.54945981       1
Co     0.06237332    3.55091398    0.11581511       2
Co     0.03789110   -0.04044464    3.74339601       3
Co    -0.00130774   -3.59108387    0.08326512       4
Cr     3.59232009   -0.02969694    0.00225317       5
Cr    -3.44438917    0.09140366   -0.04966211       6
Ni     1.66787170    1.68045588    0.08094196       7
Ni    -0.93992466    1.23790711    0.39497177       8
Ni     0.19281243    1.84075190    2.21649877       9
Co     1.70944058   -0.03382139   -1.68375822      10
Co    -2.34055608    1.54456666   -1.35935079      11
Ni    -0.00383185   -1.74199150    1.83289966      12
Ni     1.74395143   -1.76670760    0.07306224      13
Ni     1.79809004   -0.01340291    1.88622690      14
Cr     0.19902564   -2.13701455   -1.78296045      15
Co    -1.79607752   -1.85089112    0.11378361      16
Cr    -1.74518538   -0.09118542    2.06297776      17
Ni    -0.95595623   -0.27115887   -1.41630022      18
          18
Lattice="  24.8920   0.0000   0.0000   0.0000  24.8920   0.0000   0.0000   0.0000  24.8920 " ConfE="      -5943.3210" DelE="          0.2415"
Ni     0.02322831   -0.00451374   -3.43157179       1
Co     0.03205375    3.51635075    0.07459467       2
Co    -0.01699268   -0.00199925    3.65727224       3
Co    -0.01756986   -3.55737658    0.06560450       4
Cr     3.61822074   -0.03558198   -0.00484195       5
Cr    -3.54906222    0.02529618    0.06773894       6
Ni     1.77344196    1.73808872    0.05180636       7
Ni     0.01070495   -0.00265290    0.02366644       8
Ni    -0.00575835    1.73885513    1.87107873       9
Co     1.82047583   -0.03646561   -1.70978692      10
Co    -1.79483123    1.70165025    0.11401944      11
Ni    -0.01457482   -1.76314876    1.84521261      12
Ni     1.77047328   -1.78611874    0.05868201      13
Ni     1.79627427   -0.00197869    1.85301594      14
Cr    -0.00230769   -1.88856207   -1.72277933      15
Co    -1.79944027   -1.77994613    0.06539615      16
Cr    -1.80420593   -0.00597813    1.82791519      17
Ni    -1.72130577    0.00235989   -1.68070466      18
