          18
Lattice="  24.8920   0.0000   0.0000   0.0000  24.8920   0.0000   0.0000   0.0000  24.8920 " ConfE="      -5923.7050" DelE="          0.0000"
Ni     0.06477714   -3.43474162   -0.06018936       1
Co     3.58572015    0.04914472   -0.07374466       2
Cr     0.00578054    3.63860108   -0.09464256       3
Co    -3.47950648    0.03154104   -0.05592295       4
Cr     0.00027353    0.11898156   -3.67938662       5
Co     0.04810839    0.06613443    3.48854724       6
Ni     0.05848754   -1.70647063   -1.81741099       7
Cr     0.09087840   -1.70002165    1.70107018       8
Ni     1.79444199    0.03144164   -1.80897966       9
Ni     1.81546746    0.01567888    1.68975882      10
Cr    -1.80010970   -1.72224167   -0.04242289      11
Ni     1.78067479    1.83529891   -0.05367368      12
Co    -1.71037378    1.81570987   -0.06271266      13
Ni    -1.74722561    0.04060412   -1.84466637      14
Co    -1.70858743    0.03665047    1.69585451      15
Cr    -0.00972467    1.80148830   -1.81427039      16
Cr    -0.00223816    1.79702173    1.73189106      17
Cr     0.00000000    0.00000000    0.00000000      18
          18
Lattice="  24.8920   0.0000   0.0000   0.0000  24.8920   0.0000   0.0000   0.0000  24.8920 " ConfE="      -5922.8835" DelE="          0.8215"
Ni     0.06862857   -3.39102111   -0.06004119       1
Co     3.56985316   -0.00214600   -0.08426722       2
Cr     0.02319510    3.57799797   -0.08331179       3
Co    -3.49012541    0.01818322   -0.05963375       4
Cr    -0.03885596    0.15559183   -3.75027349       5
Co     0.04626926    0.07830832    3.54919570       6
Ni     0.00836842   -1.71287722   -1.94903403       7
Cr     0.05020472   -1.64886130    1.81827332       8
Ni     1.82099647    0.06419549   -1.94676953       9
Ni     1.88765676    0.09050488    1.86230637      10
Cr    -1.76265265   -1.73384834   -0.06282266      11
Ni     1.80256260    1.73613057   -0.05539760      12
Co    -1.67741859    1.76883022   -0.06914549      13
Ni    -1.72619837    0.01370410   -1.82962487      14
Co    -1.62463051   -0.00851000    1.62346859      15
Cr    -0.00922436    1.70395471   -1.69131874      16
Cr    -0.00058733    1.63759713    1.57806138      17
Cr     1.03754792   -0.93271482    0.00107797      18
          18
Lattice="  24.8920   0.0000   0.0000   0.0000  24.8920   0.0000   0.0000   0.0000  24.8920 " ConfE="      -5923.6963" DelE="          0.0086"
Ni     0.03905435   -3.48692975   -0.07145340       1
Co     3.62240249    0.05255235   -0.06353676       2
Cr     0.00765637    3.64153215   -0.09053563       3
Co    -3.50652394    0.03653316   -0.05606308       4
Cr    -0.01157115    0.12830152   -3.66953604       5
Co     0.05062385    0.07813408    3.51269876       6
Ni     0.03240169   -1.68312307   -1.79744919       7
Cr     0.04467845   -1.59469072    1.63058180       8
Ni     1.77680261    0.05268801   -1.80694177       9
Ni     1.80643601    0.05152631    1.69306699      10
Cr    -1.76449816   -1.71389563   -0.03823233      11
Ni     1.76886826    1.79866662   -0.05257967      12
Co    -1.65938062    1.78925856   -0.07187404      13
Ni    -1.73716032    0.03381839   -1.81807742      14
Co    -1.64707386    0.02822684    1.63175638      15
Cr    -0.02099548    1.78337288   -1.74456355      16
Cr    -0.03489668    1.74518017    1.64137445      17
Cr     1.81302686   -1.71811246   -0.03923202      18
