          18
Lattice="  24.8920   0.0000   0.0000   0.0000  24.8920   0.0000   0.0000   0.0000  24.8920 " ConfE="      -5936.8998" DelE="          0.0000"
Co    -0.02260066    3.52165073    0.01087679       1
Cr     0.04705876    0.00139908   -3.48124325       2
Cr     0.02096245   -3.57415119    0.11051983       3
Co    -0.01551787   -0.02589059    3.60547680       4
Ni    -3.53731042   -0.02671606    0.05932200       5
Co     3.53612969   -0.00244788    0.10918688       6
Co    -1.73467239    1.78393694    0.00224267       7
Ni     1.74723064    1.73278336    0.00870217       8
Ni    -1.74044770   -0.00458309   -1.73151470       9
Cr     1.74290660   -0.03392475   -1.73265751      10
Co     0.01656795    1.75498634    1.83720793      11
Co     0.02779240   -1.82976522   -1.70082929      12
Co     0.02684034   -1.80577487    1.83460806      13
Cr    -1.71618140   -0.01434815    1.80651956      14
Co     1.76093662   -0.02844079    1.82044624      15
Co    -1.73824155   -1.83292745    0.10261897      16
Cr     1.76453441   -1.77618863    0.11001089      17
Ni     0.00000000    0.00000000    0.00000000      18
          18
Lattice="  24.8920   0.0000   0.0000   0.0000  24.8920   0.0000   0.0000   0.0000  24.8920 " ConfE="      -5936.1507" DelE="          0.7491"
Co    -0.01139123    3.49449636    0.01702364       1
Cr     0.03387804    0.00716960   -3.49216315       2
Cr     0.02110613   -3.56978223    0.09574119       3
Co    -0.01795107   -0.02481417    3.61387780       4
Ni    -3.61366382   -0.04182845    0.07761705       5
Co     3.59160583   -0.00691842    0.11680772       6
Co    -1.87175696    1.75874594    0.11900268       7
Ni     1.88161328    1.75953018    0.08806430       8
Ni    -1.91608256   -0.06635244   -1.75178639       9
Cr     1.90261124   -0.07994161   -1.73868736      10
Co     0.00538001    1.70259338    1.78199995      11
Co     0.02872692   -1.72269871   -1.66351303      12
Co     0.03132390   -1.76989890    1.79819758      13
Cr    -1.67166458   -0.00367324    1.72467828      14
Co     1.73238071   -0.03394237    1.76325701      15
Co    -1.71105020   -1.74748674    0.10718246      16
Cr     1.70331953   -1.68359466    0.08415407      17
Ni     0.00403726    1.04583494   -1.08193716      18
          18
Lattice="  24.8920   0.0000   0.0000   0.0000  24.8920   0.0000   0.0000   0.0000  24.8920 " ConfE="      -5936.6372" DelE="          0.2626"
Co    -0.00898142    3.55238351    0.05788340       1
Cr     0.03648950   -0.03702923   -3.55228894       2
Cr     0.01944709   -3.59889036    0.11041214       3
Co    -0.01348024   -0.02821554    3.62510268       4
Ni    -3.56075827   -0.03185468    0.06613131       5
Co     3.56657933   -0.01019311    0.11639123       6
Co    -1.73535715    1.72358110    0.07400062       7
Ni     1.74794974    1.68922954    0.03639158       8
Ni    -1.74010834   -0.03538523   -1.69155659       9
Cr     1.74517681   -0.08886404   -1.68641443      10
Co     0.00486627    1.70523325    1.80188984      11
Co     0.05317411   -1.75296214   -1.64675303      12
Co     0.03083856   -1.78130246    1.81182961      13
Cr    -1.66427687   -0.00971510    1.75442895      14
Co     1.73764950   -0.04670119    1.78421048      15
Co    -1.70533315   -1.78909438    0.12010210      16
Cr     1.71932169   -1.74060369    0.11667957      17
Ni     0.01106292    1.68299653   -1.69983088      18
