          18
Lattice="  24.8920   0.0000   0.0000   0.0000  24.8920   0.0000   0.0000   0.0000  24.8920 " ConfE="      -5938.5928" DelE="          0.0000"
Ni    -3.49689538    0.11823528    0.00483679       1
Co     0.02830503   -3.45333009   -0.00476965       2
Co     3.59685283    0.09234492   -0.03198849       3
Co     0.05039927    3.64996710   -0.02246198       4
Cr     0.02522438    0.06405689    3.52792615       5
Co     0.00378729    0.05582089   -3.57506012       6
Ni    -1.74808365    0.06238928    1.74724198       7
Ni    -1.71862364    0.04572887   -1.76597692       8
Ni     1.83071119   -1.69396639    0.00570042       9
Co     0.04796419   -1.71441694    1.80868086      10
Cr     0.03528373   -1.75393780   -1.75798595      11
Ni     1.82060484    0.09057916    1.75858473      12
Cr    -1.59486478    1.91190539   -0.03514318      13
Co     1.78670816    0.06607683   -1.78830974      14
Cr     1.73634957    1.85398356   -0.01706614      15
Co     0.01716943    1.86202907    1.78101479      16
Co     0.06382815    1.84085856   -1.81586722      17
Ni     0.00000000    0.00000000    0.00000000      18
          18
Lattice="  24.8920   0.0000   0.0000   0.0000  24.8920   0.0000   0.0000   0.0000  24.8920 " ConfE="      -5937.3320" DelE="          1.2607"
Ni    -3.40666533    0.10998807    0.01071040       1
Co     0.01308102   -3.50064516   -0.01089394       2
Co     3.47492564    0.10628878    0.03272264       3
Co     0.03894922    3.68117678   -0.01432541       4
Cr     0.16972442    0.07234728    3.53156763       5
Co     0.04366802    0.08686867   -3.65106714       6
Ni    -1.69618050    0.11675003    1.88925212       7
Ni    -1.72629032    0.13225876   -1.96455125       8
Ni     1.78857992   -1.80245847   -0.04482846       9
Co     0.04890058   -1.87287411    1.93117388      10
Cr     0.15927366   -1.71586350   -1.92249741      11
Ni     0.98321889    0.09004269    1.05418878      12
Cr    -1.38535393    1.71619805   -0.07433721      13
Co     1.72593932    0.06136091   -1.73848953      14
Cr     1.71346246    1.99932659   -0.03719787      15
Co    -0.05418112    2.04641873    1.87720960      16
Co     0.09228314    1.82600717   -1.81499269      17
Ni    -1.04853065   -1.06817794   -0.07508168      18
          18
Lattice="  24.8920   0.0000   0.0000   0.0000  24.8920   0.0000   0.0000   0.0000  24.8920 " ConfE="      -5938.3775" DelE="          0.2153"
Ni    -3.50744179    0.13316946    0.00383566       1
Co     0.05887005   -3.48457208    0.00257287       2
Co     3.55395115    0.10629443    0.01631576       3
Co     0.06096883    3.64218836   -0.01501750       4
Cr     0.12041343    0.05897396    3.48113101       5
Co     0.00731104    0.07015584   -3.58478619       6
Ni    -1.75768229    0.08879335    1.76930826       7
Ni    -1.70868731    0.08515326   -1.78095071       8
Ni     1.81533921   -1.66754023    0.03842089       9
Co     0.10196331   -1.67071948    1.83640246      10
Cr     0.09354024   -1.71325116   -1.78087447      11
Ni     0.07692791    0.05771548    0.03259219      12
Cr    -1.57540717    1.89725287   -0.01712434      13
Co     1.79663534    0.08260208   -1.80645187      14
Cr     1.75721536    1.83694498    0.04066808      15
Co     0.06401384    1.83764634    1.78495194      16
Co     0.08456478    1.84953975   -1.81657179      17
Ni    -1.71973977   -1.69739933   -0.01210473      18
