          18
Lattice="  24.8920   0.0000   0.0000   0.0000  24.8920   0.0000   0.0000   0.0000  24.8920 " ConfE="      -5935.2816" DelE="          0.0000"
Ni    -0.04515223    0.00381601   -3.52787438       1
Cr    -0.00120136    3.48823860   -0.00526353       2
Co     0.01645465   -0.00593401    3.56493447       3
Co     0.00969313   -3.56310113    0.00284118       4
Cr     3.55357951   -0.00638506   -0.06312692       5
Cr    -3.55870090   -0.04090420    0.02908220       6
Cr     1.75796314    0.06640979   -1.80906172       7
Ni    -1.76755167   -0.01075801   -1.77709643       8
Co     1.74222112    1.75513443   -0.06899814       9
Ni    -1.76071157    1.74080935   -0.02327007      10
Co     0.02760128   -1.81147454   -1.76465744      11
Co     0.05626450    1.76921102    1.79859569      12
Ni     0.02564180   -1.77598994    1.77460004      13
Cr     1.78609084   -1.78801523   -0.05057418      14
Ni    -1.76566709   -1.76666445    0.01772082      15
Cr     1.80174652    0.03301319    1.79697646      16
Cr    -1.73079204    0.00272342    1.84324836      17
Ni     0.00000000    0.00000000    0.00000000      18
          18
Lattice="  24.8920   0.0000   0.0000   0.0000  24.8920   0.0000   0.0000   0.0000  24.8920 " ConfE="      -5934.6148" DelE="          0.6668"
Ni    -0.06437058    0.00252588   -3.47932654       1
Cr     0.00278735    3.41775003   -0.04397541       2
Co     0.01943512   -0.00097240    3.56973029       3
Co     0.00777270   -3.56788706   -0.00447181       4
Cr     3.60510959   -0.01258279   -0.04294390       5
Cr    -3.62090709   -0.05635320    0.05112748       6
Cr     1.94314721    0.00171313   -1.93065499       7
Ni    -1.91598260   -0.06199572   -1.80119891       8
Co     1.96785710    1.81269708    0.04270189       9
Ni    -1.88096271    1.74104037   -0.00499923      10
Co     0.02796961   -1.75562476   -1.72114156      11
Co     0.05309624    1.73357833    1.72094845      12
Ni     0.01955504   -1.72578706    1.71793795      13
Cr     1.74634133   -1.69395736   -0.08982779      14
Ni    -1.76673948   -1.74142541    0.01262207      15
Cr     1.73924102    0.02297898    1.73472509      16
Cr    -1.68461983    0.02158419    1.77819022      17
Ni     0.08829115    0.72203444   -0.79998840      18
          18
Lattice="  24.8920   0.0000   0.0000   0.0000  24.8920   0.0000   0.0000   0.0000  24.8920 " ConfE="      -5935.4961" DelE="         -0.2144"
Ni    -0.02639780   -0.01330536   -3.56358465       1
Cr    -0.01185972    3.53708991    0.02940118       2
Co     0.02145171   -0.00748498    3.58216439       3
Co     0.00078095   -3.57994203    0.00242457       4
Cr     3.61635645   -0.01281931   -0.03528638       5
Cr    -3.58788311   -0.05361594    0.04427399       6
Cr     1.75358741   -0.02582407   -1.68276809       7
Ni    -1.77236506   -0.03823997   -1.75549697       8
Co     1.75258440    1.70632611   -0.01298567       9
Ni    -1.77737660    1.71633518   -0.00189797      10
Co     0.04402659   -1.75705713   -1.72416337      11
Co     0.03481207    1.72247307    1.74483742      12
Ni     0.02180444   -1.74955166    1.75014100      13
Cr     1.76197327   -1.78478191   -0.01904040      14
Ni    -1.73641496   -1.72970277    0.02716537      15
Cr     1.72576891    0.02043182    1.68534508      16
Cr    -1.67144580    0.01190359    1.80806072      17
Ni    -0.02142500    1.73714492   -1.75838346      18
