          18
Lattice="  24.8920   0.0000   0.0000   0.0000  24.8920   0.0000   0.0000   0.0000  24.8920 " ConfE="      -5938.6815" DelE="          0.0000"
Ni    -3.52731414    0.04595194    0.04123087       1
Co    -0.01489021    0.05613481   -3.51108822       2
Cr     3.55245022    0.02649353    0.11868011       3
Co    -0.02650442    0.02831782    3.64330476       4
Co    -0.03221023   -3.47112032    0.03817822       5
Cr     0.05590465    3.66316664    0.09572812       6
Ni     1.76478540   -1.68428459    0.02333648       7
Ni     0.01848508    1.82386792   -1.75275615       8
Ni     1.74926185    1.77157896    0.00617148       9
Ni    -1.77137146    0.02958773   -1.73217033      10
Ni    -1.76003323    0.02045793    1.78242914      11
Co    -0.02661710   -1.70714435   -1.72279792      12
Ni    -1.77046507    1.83356968    0.03430777      13
Ni     1.76063419    0.06279464    1.81951903      14
Ni    -0.02397569    1.81850060    1.80360071      15
Cr    -1.68493262   -1.80557680    0.01385639      16
Co    -0.00375736   -1.74566407    1.83839539      17
Co     0.00000000    0.00000000    0.00000000      18
          18
Lattice="  24.8920   0.0000   0.0000   0.0000  24.8920   0.0000   0.0000   0.0000  24.8920 " ConfE="      -5937.8314" DelE="          0.8500"
Ni    -3.50751055    0.05020835    0.03352931       1
Co     0.03569799    0.05805962   -3.43405219       2
Cr     3.38550326    0.04763834    0.03845709       3
Co    -0.02087104    0.02519919    3.63587396       4
Co    -0.04100854   -3.53746352    0.04801826       5
Cr     0.03963529    3.74810581    0.10970197       6
Ni     1.76314361   -1.82115460    0.07738337       7
Ni    -0.01862819    1.99855682   -1.81604890       8
Ni     1.77814725    1.96899975    0.05796995       9
Ni    -1.69007290    0.02161686   -1.69549069      10
Ni    -1.70487434    0.01510373    1.72711110      11
Co    -0.06661826   -1.83857789   -1.73840453      12
Ni    -1.69995691    1.81832917    0.00497724      13
Ni     1.72555768    0.06736901    1.76107587      14
Ni    -0.00785690    1.82482045    1.77059890      15
Cr    -1.63930469   -1.81032136    0.02731009      16
Co    -0.01793535   -1.75576517    1.80232019      17
Co     0.71239966    0.08296336   -0.74811272      18
          18
Lattice="  24.8920   0.0000   0.0000   0.0000  24.8920   0.0000   0.0000   0.0000  24.8920 " ConfE="      -5938.6817" DelE="         -0.0003"
Ni    -3.53965970    0.04357328    0.04027233       1
Co    -0.03189827    0.04639390   -3.52640932       2
Cr     3.55825562    0.03715384    0.09645952       3
Co    -0.02955826    0.02342365    3.64758631       4
Co    -0.04121648   -3.49295418    0.04725919       5
Cr     0.04674930    3.71418853    0.11248292       6
Ni     1.73790974   -1.68708158    0.05345752       7
Ni    -0.00421890    1.84459826   -1.72917111       8
Ni     1.72749370    1.81019478    0.04246191       9
Ni    -1.72236627    0.01632731   -1.68322799      10
Ni    -1.72785367   -0.00288397    1.72811761      11
Co    -0.03363358   -1.70002121   -1.66477915      12
Ni    -1.75994606    1.82682429    0.03790777      13
Ni     1.74009052    0.06320500    1.77697024      14
Ni    -0.03078888    1.81441625    1.79236116      15
Cr    -1.70899031   -1.84746890    0.01390801      16
Co    -0.01385203   -1.74360261    1.81935927      17
Co     1.72649741    0.06745214   -1.67051190      18
