          18
Lattice="  24.8920   0.0000   0.0000   0.0000  24.8920   0.0000   0.0000   0.0000  24.8920 " ConfE="      -5925.3940" DelE="          0.0000"
Ni    -3.55815443   -0.01694348    0.04502770       1
Co    -0.01659735   -3.59942403   -0.01769089       2
Cr     3.56136224    0.01639828   -0.06733609       3
Co    -0.02549855    3.54016611   -0.00299264       4
Cr    -0.04700394    0.02723129   -3.45778810       5
Ni     0.01504621   -0.02703353    3.53979301       6
Co    -1.78605872    0.00642837   -1.70362325       7
Cr    -1.78712505   -0.07622988    1.72997063       8
Ni    -0.04087312   -1.78654690   -1.72380092       9
Ni     0.00739061   -1.80833789    1.71029617      10
Cr    -1.81529788    1.78154369    0.00225896      11
Cr     1.83704265   -1.83005723   -0.09315201      12
Cr     1.81488024    1.78861254   -0.04944688      13
Cr    -0.05636241    1.83131500   -1.77461792      14
Ni     0.00119207    1.75182896    1.76019301      15
Co     1.76234702    0.01607882   -1.76086301      16
Ni     1.81871338   -0.03811945    1.72209228      17
Ni     0.00000000    0.00000000    0.00000000      18
          18
Lattice="  24.8920   0.0000   0.0000   0.0000  24.8920   0.0000   0.0000   0.0000  24.8920 " ConfE="      -5924.6715" DelE="          0.7224"
Ni    -3.46963716   -0.03038612    0.03304227       1
Co    -0.02341187   -3.56648075   -0.01464415       2
Cr     3.55923858   -0.01202301   -0.05626860       3
Co    -0.03241518    3.54660340   -0.00446007       4
Cr    -0.04252333    0.03091296   -3.53096728       5
Ni     0.02883095   -0.01980465    3.60215786       6
Co    -1.82151632    0.03623136   -1.97099861       7
Cr    -1.82502293    0.02418145    1.94307035       8
Ni    -0.00174336   -1.84987150   -1.87886487       9
Ni     0.02904854   -1.84609207    1.87062920      10
Cr    -1.73583179    1.72382040   -0.02920263      11
Cr     1.72390426   -1.77104584   -0.06570184      12
Cr     1.68320856    1.66413321   -0.06351596      13
Cr    -0.07130563    1.74680073   -1.75686433      14
Ni    -0.00021006    1.72098328    1.76357265      15
Co     1.70373921   -0.01428875   -1.73006553      16
Ni     1.78761313   -0.05564788    1.73997248      17
Ni    -0.75567243   -0.65912542   -0.00452538      18
          18
Lattice="  24.8920   0.0000   0.0000   0.0000  24.8920   0.0000   0.0000   0.0000  24.8920 " ConfE="      -5925.3794" DelE="          0.0145"
Ni    -3.59192358    0.01553060    0.04844035       1
Co     0.00134317   -3.62277714   -0.01767835       2
Cr     3.58041625    0.01001580   -0.06010773       3
Co    -0.02142486    3.57263011   -0.01026096       4
Cr    -0.03082670    0.03235924   -3.49538761       5
Ni     0.02430612   -0.01659242    3.56335269       6
Co    -1.74103335    0.05643321   -1.68428129       7
Cr    -1.76048928    0.06034217    1.76128257       8
Ni    -0.01062930   -1.75675339   -1.72417063       9
Ni     0.02930704   -1.77742813    1.72587774      10
Cr    -1.74605508    1.72175675   -0.03094047      11
Cr     1.79767598   -1.79666820   -0.07987847      12
Cr     1.76629963    1.74259969   -0.07537728      13
Cr    -0.03443632    1.81505969   -1.75623133      14
Ni     0.02629797    1.72396920    1.71205441      15
Co     1.71282825    0.03076287   -1.69235030      16
Ni     1.79436554   -0.03678335    1.69279041      17
Ni    -1.74743791   -1.72932732    0.04967329      18
