          18
Lattice="  24.8920   0.0000   0.0000   0.0000  24.8920   0.0000   0.0000   0.0000  24.8920 " ConfE="      -5944.8933" DelE="          0.0000"
Co    -3.47821303    0.02823610    0.02150567       1
Ni     0.00995752    0.03604699    3.52668968       2
Cr     3.53139050    0.04959432    0.01383221       3
Ni    -0.00972561    0.02168905   -3.58708818       4
Ni     0.00608177   -3.51477033   -0.00734559       5
Ni    -0.01487832    3.55273899   -0.02961669       6
Cr    -1.70594999   -1.58915953    0.06357257       7
Cr    -1.70186989    1.68075340    0.05595029       8
Cr     0.02153757   -1.72048291    1.76909544       9
Co    -0.04203810    1.75443886    1.75835276      10
Cr    -1.81696280    0.05059292   -1.80930097      11
Co     1.80436021    0.01031071    1.76510021      12
Co     1.79182211    0.01650520   -1.79676204      13
Cr     0.07364284   -1.70952373   -1.83123151      14
Ni    -0.00090700    1.77722745   -1.79752763      15
Co     1.77014064   -1.74395539    0.00447995      16
Co     1.76285773    1.79394889    0.00001682      17
Co     0.00000000    0.00000000    0.00000000      18
          18
Lattice="  24.8920   0.0000   0.0000   0.0000  24.8920   0.0000   0.0000   0.0000  24.8920 " ConfE="      -5944.2775" DelE="          0.6158"
Co    -3.42085611    0.03150494    0.02340413       1
Ni    -0.00046988    0.02834969    3.49281102       2
Cr     3.53999948    0.05233374    0.01801116       3
Ni    -0.01741499    0.01359196   -3.57325393       4
Ni     0.01883442   -3.59097598   -0.01549047       5
Ni     0.01418410    3.61532182   -0.03543592       6
Cr    -1.79285898   -1.89500297   -0.00060629       7
Cr    -1.74485755    1.92809076   -0.04578842       8
Cr     0.05849365   -1.84295325    1.76797918       9
Co     0.03179376    1.89934772    1.80614506      10
Cr    -1.78077745    0.04009165   -1.71162347      11
Co     1.72042367    0.01512796    1.70273217      12
Co     1.74356813    0.00164249   -1.74938726      13
Cr     0.02773793   -1.65305043   -1.70303380      14
Ni    -0.00153225    1.75952518   -1.74729549      15
Co     1.71881861   -1.73342703    0.00698074      16
Co     1.74775163    1.79847037    0.00209682      17
Co    -0.84398327   -0.00230102    0.77718022      18
          18
Lattice="  24.8920   0.0000   0.0000   0.0000  24.8920   0.0000   0.0000   0.0000  24.8920 " ConfE="      -5944.7496" DelE="          0.1437"
Co    -3.54371077    0.02441310   -0.00862764       1
Ni     0.02890201    0.03443688    3.56276214       2
Cr     3.56824376    0.05832421    0.01132517       3
Ni    -0.00538539    0.02097877   -3.59913025       4
Ni     0.01847985   -3.54261800   -0.01498403       5
Ni    -0.00356068    3.57285592   -0.04002631       6
Cr    -1.63273437   -1.57708221    0.00103608       7
Cr    -1.67478251    1.69699922    0.01015439       8
Cr     0.07712783   -1.69061039    1.70261436       9
Co     0.00302681    1.75586163    1.72301311      10
Cr    -1.79103837    0.05464235   -1.77688351      11
Co     1.75914260    0.00763980    1.73617920      12
Co     1.78436396    0.01360477   -1.78165319      13
Cr     0.09260719   -1.66138982   -1.78440796      14
Ni     0.00922987    1.73945414   -1.76201089      15
Co     1.72483510   -1.70032833   -0.01001981      16
Co     1.75645945    1.77426528   -0.00641866      17
Co    -1.72604601   -0.00009004    1.73552044      18
