          18
Lattice="  24.8920   0.0000   0.0000   0.0000  24.8920   0.0000   0.0000   0.0000  24.8920 " ConfE="      -5934.4334" DelE="          0.0000"
Cr    -3.51277592    0.00875160   -0.04966143       1
Cr    -0.02227505    3.48412974    0.00302289       2
Ni     3.61157613   -0.08066076   -0.01513464       3
Co     0.06614721   -3.68363033    0.03437910       4
Cr     0.07289483   -0.05046357   -3.57067298       5
Cr     0.00166464   -0.02333827    3.46704213       6
Ni    -1.74589627   -0.05568128   -1.76051026       7
Ni    -1.79423741   -0.03038531    1.68768431       8
Cr    -0.02434610    1.72008640   -1.60601084       9
Cr    -0.03701548    1.71462193    1.67235690      10
Cr    -1.74977517   -1.91019268    0.00426666      11
Ni     1.83339568    1.71125841    0.00169471      12
Cr     1.80378984   -1.84570960    0.02173270      13
Ni     0.03071931   -1.82954355   -1.76479675      14
Ni     0.00887205   -1.84128915    1.73330190      15
Ni     1.80630697   -0.06096045   -1.77274105      16
Cr     1.83148607   -0.07949693    1.78715439      17
Co     0.00000000    0.00000000    0.00000000      18
          18
Lattice="  24.8920   0.0000   0.0000   0.0000  24.8920   0.0000   0.0000   0.0000  24.8920 " ConfE="      -5933.2642" DelE="          1.1691"
Cr    -3.43849887    0.01056109   -0.04047031       1
Cr     0.00948423    3.46342751    0.00576277       2
Ni     3.52252617   -0.12093917   -0.01815604       3
Co     0.07571039   -3.51800629    0.05291459       4
Cr     0.09165303   -0.07611094   -3.74563987       5
Cr    -0.00281271   -0.05427206    3.69069878       6
Ni    -1.72736296   -0.11738937   -1.92963063       7
Ni    -1.77622348   -0.10795513    1.87129894       8
Cr     0.11087430    1.62430836   -1.89835607       9
Cr     0.07367584    1.60334461    1.87613327      10
Cr    -1.71857121   -1.78384177   -0.00222650      11
Ni     1.72223058    1.62270700   -0.00987329      12
Cr     0.89083507   -0.84666078    0.05842212      13
Ni     0.02528150   -1.81298416   -1.88297706      14
Ni    -0.06282373   -1.84634694    1.90689146      15
Ni     1.83885338   -0.06603168   -1.91850521      16
Cr     1.86468030   -0.12993857    1.93129140      17
Co    -1.03825676    1.08802333   -0.03917249      18
          18
Lattice="  24.8920   0.0000   0.0000   0.0000  24.8920   0.0000   0.0000   0.0000  24.8920 " ConfE="      -5934.0671" DelE="          0.3663"
Cr    -3.51803490   -0.02742145   -0.01968632       1
Cr     0.00787078    3.52382759    0.00668134       2
Ni     3.57313119   -0.11739280   -0.01739311       3
Co     0.10120793   -3.64764992    0.04899540       4
Cr     0.08582837   -0.07255939   -3.61063423       5
Cr     0.03035567   -0.06020247    3.50263909       6
Ni    -1.72973523   -0.07669141   -1.78752615       7
Ni    -1.76819943   -0.07594362    1.74811598       8
Cr     0.04010518    1.69248402   -1.73488898       9
Cr     0.01600971    1.70622079    1.77549265      10
Cr    -1.75408718   -1.89014600    0.00641265      11
Ni     1.78973748    1.70400109   -0.00363844      12
Cr     0.05542333   -0.11191388    0.03430681      13
Ni     0.05043654   -1.83181780   -1.75377660      14
Ni     0.06371115   -1.86512782    1.72776716      15
Ni     1.80404339   -0.09991477   -1.76266250      16
Cr     1.85022299   -0.15795989    1.76441775      17
Co    -1.69786944    1.69296637   -0.02456018      18
