          18
Lattice="  24.8920   0.0000   0.0000   0.0000  24.8920   0.0000   0.0000   0.0000  24.8920 " ConfE="      -5948.0770" DelE="          0.0000"
Ni    -0.06262358   -0.00232865   -3.49824603       1
Ni    -0.05231410    3.54532780    0.04474683       2
Ni    -3.60301623    0.02324636    0.04275440       3
Ni    -0.08100504   -3.55706891    0.01525717       4
Ni    -0.07780188    0.03463384    3.59714088       5
Co     3.42643439   -0.00922522   -0.00656629       6
Ni    -0.03780281    1.73492527   -1.74314815       7
Ni    -1.84348824    0.00816072   -1.74075347       8
Cr    -0.05232641   -1.78072583   -1.73959872       9
Co     1.71192129    1.73761473    0.03388162      10
Co     1.67281387   -1.72969617   -0.03004776      11
Ni    -0.05561787    1.79828765    1.81761860      12
Ni    -0.05285971   -1.75038295    1.79917917      13
Ni    -1.82086681    0.04959232    1.80494270      14
Cr     1.72777171    0.00285475    1.80406524      15
Cr    -1.84097230    1.83663575    0.01497289      16
Co    -1.84982365   -1.77056277    0.01165816      17
Cr     0.00000000    0.00000000    0.00000000      18
          18
Lattice="  24.8920   0.0000   0.0000   0.0000  24.8920   0.0000   0.0000   0.0000  24.8920 " ConfE="      -5947.4916" DelE="          0.5854"
Ni    -0.07031245   -0.00459504   -3.46933245       1
Ni    -0.06221170    3.58304548    0.04956906       2
Ni    -3.60718066    0.02274870    0.03627068       3
Ni    -0.09008218   -3.58420819    0.02110570       4
Ni    -0.07886209    0.03302853    3.59982995       5
Co     3.36600255   -0.02200251   -0.01558597       6
Ni    -0.10005684    1.85380737   -1.76631879       7
Ni    -1.80347815    0.01199975   -1.71902994       8
Cr    -0.11079679   -1.91472161   -1.78292336       9
Co     1.70234345    1.79847658    0.02360154      10
Co     1.74152888   -1.89029553    0.05008480      11
Ni    -0.03186589    1.76187511    1.76849763      12
Ni    -0.02728323   -1.70767727    1.74169490      13
Ni    -1.79447997    0.04691726    1.77274691      14
Cr     1.74053639   -0.00942880    1.78361471      15
Cr    -1.78548550    1.78247074    0.01579938      16
Co    -1.80864408   -1.74729801   -0.00428415      17
Cr     0.69982849   -0.10123004   -0.80995055      18
          18
Lattice="  24.8920   0.0000   0.0000   0.0000  24.8920   0.0000   0.0000   0.0000  24.8920 " ConfE="      -5948.0136" DelE="          0.0634"
Ni    -0.10565111    0.00489520   -3.53342275       1
Ni    -0.06610901    3.56897972    0.05362843       2
Ni    -3.61909071    0.02173700    0.04430617       3
Ni    -0.08971021   -3.57941590    0.02367943       4
Ni    -0.07845636    0.03478379    3.59112727       5
Co     3.50144484   -0.02013154   -0.00102077       6
Ni    -0.08971166    1.74101851   -1.70003040       7
Ni    -1.81033994    0.00884829   -1.69894744       8
Cr    -0.10761552   -1.80256418   -1.73471402       9
Co     1.69278792    1.71286757    0.04687511      10
Co     1.67593910   -1.75393138    0.01280235      11
Ni    -0.06671170    1.77765279    1.78770419      12
Ni    -0.05588104   -1.71902048    1.76421041      13
Ni    -1.81539294    0.05260397    1.78390057      14
Cr     1.69929424   -0.00379533    1.70580978      15
Cr    -1.86968024    1.85055201    0.03547501      16
Co    -1.84412138   -1.76651846    0.01049440      17
Cr     1.57338556   -0.07958347   -1.60967086      18
