          18
Lattice="  24.8920   0.0000   0.0000   0.0000  24.8920   0.0000   0.0000   0.0000  24.8920 " ConfE="      -5949.3294" DelE="          0.0000"
Co     0.00181296   -0.01560140   -3.55358174       1
Ni     3.42113883   -0.01629032    0.03105254       2
Cr    -0.03313803    0.03666616    3.61047203       3
Co    -3.61326826    0.02689599    0.02471176       4
Ni    -0.04457421    3.57626202    0.04621350       5
Co    -0.01123287   -3.53116473    0.02178858       6
Ni    -0.02706116    1.76814725   -1.76476871       7
Co     0.02552044   -1.73277951   -1.79699405       8
Ni     1.69733725    1.77011055    0.03507170       9
Cr     1.65171024   -1.81349205    0.00817773      10
Ni    -1.82253937    0.04357015   -1.75398658      11
Cr     1.67212428   -0.02545822    1.90527726      12
Co    -1.80154947    0.01592912    1.77716197      13
Cr    -1.86536462    1.79842463    0.07380870      14
Ni    -1.78678106   -1.75662085    0.00995015      15
Ni    -0.06185567    1.78587178    1.79400976      16
Co    -0.02243077   -1.77097877    1.83001212      17
Ni     0.00000000    0.00000000    0.00000000      18
          18
Lattice="  24.8920   0.0000   0.0000   0.0000  24.8920   0.0000   0.0000   0.0000  24.8920 " ConfE="      -5948.7888" DelE="          0.5406"
Co     0.00136582   -0.02009499   -3.53967295       1
Ni     3.36217890   -0.02338258    0.01677897       2
Cr     0.00859007    0.04300460    3.61466827       3
Co    -3.60880033    0.03120310    0.01778436       4
Ni    -0.04788038    3.63371444    0.05844202       5
Co    -0.02631273   -3.57000929    0.00909088       6
Ni    -0.04202099    1.87009264   -1.76277650       7
Co    -0.06018408   -1.91603163   -1.90407553       8
Ni     1.71655883    1.91720334    0.09192523       9
Cr     1.68402808   -2.02386241    0.07805130      10
Ni    -1.72835587    0.04174502   -1.71734893      11
Cr     1.61894967   -0.03941335    1.82799079      12
Co    -1.72878136    0.03574490    1.70734782      13
Cr    -1.81325139    1.78789888    0.07475872      14
Ni    -1.74011402   -1.74633946   -0.00819650      15
Ni    -0.04404690    1.79776361    1.78341030      16
Co     0.00849820   -1.74345151    1.77660418      17
Ni     0.79450849   -0.08227370   -0.71615497      18
          18
Lattice="  24.8920   0.0000   0.0000   0.0000  24.8920   0.0000   0.0000   0.0000  24.8920 " ConfE="      -5949.4237" DelE="         -0.0943"
Co    -0.03917718   -0.01204751   -3.57998839       1
Ni     3.47575017   -0.00958585    0.05743066       2
Cr    -0.01759634    0.05002750    3.62526555       3
Co    -3.63630130    0.02744647    0.02578279       4
Ni    -0.05046226    3.59221345    0.05469325       5
Co    -0.01392033   -3.56178941    0.02890013       6
Ni    -0.07365824    1.77816896   -1.71877548       7
Co    -0.03872408   -1.75235082   -1.77044232       8
Ni     1.66279655    1.75039156    0.06130605       9
Cr     1.58393824   -1.75131951    0.04449995      10
Ni    -1.79838109    0.04892064   -1.71885144      11
Cr     1.61565309   -0.04609563    1.83254775      12
Co    -1.76543247    0.03442391    1.73367746      13
Cr    -1.87806289    1.79448340    0.09494620      14
Ni    -1.75859247   -1.72636346    0.01467624      15
Ni    -0.06738649    1.76919899    1.77428834      16
Co    -0.00868384   -1.72959748    1.78058565      17
Ni     1.67169622    0.00601793   -1.69564728      18
