          18
Lattice="  24.8920   0.0000   0.0000   0.0000  24.8920   0.0000   0.0000   0.0000  24.8920 " ConfE="      -5923.0734" DelE="          0.0000"
Cr    -3.50621058   -0.01284966   -0.00494740       1
Cr     0.05644614   -3.44649493    0.01806692       2
Cr     3.66582041   -0.09229691    0.07802158       3
Ni     0.05542286    3.60536461   -0.02141928       4
Co     0.02788466    0.04715204   -3.56084184       5
Co     0.01858110    0.06165506    3.55805667       6
Co    -1.77501851   -0.02014923   -1.75162580       7
Cr    -1.75972474    0.02288253    1.73817993       8
Ni     0.01216942   -1.74458692   -1.75677692       9
Ni     0.03196171   -1.71023095    1.77672911      10
Ni    -1.74805819    1.82704772   -0.02303477      11
Co     1.89582950   -1.70621291   -0.00353157      12
Cr     1.82486186    1.78987533    0.03205995      13
Cr     0.01040187    1.80698585   -1.77975510      14
Co     0.03927443    1.81074832    1.75291602      15
Cr     1.78291092    0.03638152   -1.73972006      16
Co     1.84944244    0.05999023    1.76425304      17
Ni     0.00000000    0.00000000    0.00000000      18
          18
Lattice="  24.8920   0.0000   0.0000   0.0000  24.8920   0.0000   0.0000   0.0000  24.8920 " ConfE="      -5922.5420" DelE="          0.5314"
Cr    -3.48959288   -0.02122564   -0.02406858       1
Cr     0.02533788   -3.38163053    0.02224114       2
Cr     3.67993464   -0.13961384    0.07864864       3
Ni     0.04258756    3.59211253   -0.01835992       4
Co     0.04715264    0.04342174   -3.64290738       5
Co     0.03164251    0.07000646    3.62460128       6
Co    -1.76483714    0.09373201   -1.98287955       7
Cr    -1.77496067    0.07632343    1.93919434       8
Ni     0.03779693   -1.75942354   -1.90217057       9
Ni     0.07336409   -1.72690167    1.93816648      10
Ni    -1.71661247    1.72702060   -0.02484888      11
Co     1.79662231   -1.66679201   -0.00152176      12
Cr     1.71824861    1.68086000    0.03917797      13
Cr     0.00729908    1.75923586   -1.75521519      14
Co     0.02413895    1.75011949    1.73813218      15
Cr     1.68477427    0.01462564   -1.68993991      16
Co     1.81302647    0.05469903    1.75917934      17
Ni    -0.89800774   -0.79370716    0.00271800      18
          18
Lattice="  24.8920   0.0000   0.0000   0.0000  24.8920   0.0000   0.0000   0.0000  24.8920 " ConfE="      -5923.1643" DelE="         -0.0909"
Cr    -3.57338090    0.03141551   -0.00988656       1
Cr     0.10678617   -3.48744185    0.03245528       2
Cr     3.69878153   -0.12125480    0.07692326       3
Ni     0.05459659    3.61948666   -0.01807675       4
Co     0.03451307    0.04875686   -3.60025424       5
Co     0.03124579    0.06692375    3.58912848       6
Co    -1.71662192    0.04537585   -1.78338196       7
Cr    -1.69297669    0.07558426    1.73549518       8
Ni     0.03135887   -1.72176326   -1.75921014       9
Ni     0.06191059   -1.66792622    1.76795263      10
Ni    -1.72386596    1.78548201   -0.02806258      11
Co     1.84882428   -1.66483962   -0.00939181      12
Cr     1.77487739    1.74326674    0.03765331      13
Cr     0.02024703    1.78092558   -1.74680239      14
Co     0.04396994    1.76568641    1.71271137      15
Cr     1.69930336    0.03933398   -1.66983445      16
Co     1.83472802    0.07569938    1.73703758      17
Ni    -1.69358093   -1.68329550    0.01032349      18
