          18
Lattice="  24.8920   0.0000   0.0000   0.0000  24.8920   0.0000   0.0000   0.0000  24.8920 " ConfE="      -5934.7832" DelE="          0.0000"
Cr    -0.01028660    0.08485984   -3.45014882       1
Ni    -3.60061826   -0.08759567    0.01814773       2
Cr    -0.00798911    3.42865526    0.02615671       3
Ni     0.00595569   -3.62035875    0.00049115       4
Cr     0.00081963   -0.08858303    3.59258579       5
Co     3.52072133   -0.08654802    0.02145986       6
Ni    -1.78021686   -0.04294184   -1.73343924       7
Ni    -1.77431792   -1.84853306    0.01398022       8
Cr    -1.77842814    1.71075000    0.03777402       9
Cr     1.72805410    1.67172317    0.02377230      10
Co     1.71526548   -0.01168733   -1.75411779      11
Ni    -0.02706133    1.70275061    1.85471793      12
Cr     0.04410570   -1.82008666   -1.74447435      13
Cr     1.77469421   -1.82982209    0.00420681      14
Co     0.01393202   -1.81653798    1.80094244      15
Cr    -1.79317034   -0.07192323    1.78791207      16
Cr     1.78052486   -0.06718588    1.80998427      17
Co     0.00000000    0.00000000    0.00000000      18
          18
Lattice="  24.8920   0.0000   0.0000   0.0000  24.8920   0.0000   0.0000   0.0000  24.8920 " ConfE="      -5933.8303" DelE="          0.9529"
Cr    -0.05160768    0.16321656   -3.45422294       1
Ni    -3.55424298   -0.17437299    0.04540516       2
Cr    -0.00961684    3.44847669    0.01796529       3
Ni    -0.01504076   -3.54623917   -0.02457080       4
Cr     0.05384860   -0.05199912    3.65690460       5
Co     3.57309208   -0.12688652    0.02385291       6
Ni    -1.91783942   -0.08049058   -1.85717188       7
Ni    -1.10544674   -1.21845251    0.08687583       8
Cr    -1.94564662    1.66028011    0.10439179       9
Cr     1.92878277    1.61352834    0.06318200      10
Co     1.82402082   -0.10203913   -1.79305030      11
Ni    -0.03314467    1.65291731    1.75195744      12
Cr     0.04347621   -1.74083440   -1.90760702      13
Cr     1.67046710   -1.72759378   -0.01582925      14
Co     0.10577171   -1.82742497    2.00938307      15
Cr    -1.80088634   -0.05350736    1.96223547      16
Cr     1.69034017   -0.08564558    1.74966149      17
Co    -0.02651799    1.05130829   -0.95281873      18
          18
Lattice="  24.8920   0.0000   0.0000   0.0000  24.8920   0.0000   0.0000   0.0000  24.8920 " ConfE="      -5934.3844" DelE="          0.3988"
Cr    -0.00103462    0.02171965   -3.63016541       1
Ni    -3.46832313   -0.14446496    0.03467032       2
Cr    -0.01845868    3.47745332    0.08096763       3
Ni    -0.03234494   -3.51045704   -0.00456927       4
Cr     0.05845662   -0.08475243    3.70498027       5
Co     3.52572177   -0.09575749    0.02365493       6
Ni    -1.81255990   -0.07110624   -1.89877275       7
Ni    -0.86835479   -0.98026697    0.06823726       8
Cr    -1.66100761    1.59054431    0.02440912       9
Cr     1.59958905    1.51756706    0.02071916      10
Co     1.71148460   -0.09631104   -1.75428095      11
Ni    -0.03695058    1.66472002    1.86984171      12
Cr     0.04830467   -1.84784949   -1.94243278      13
Cr     1.69474356   -1.73830460    0.01140767      14
Co     0.09303475   -1.83812628    2.03534002      15
Cr    -1.82114132   -0.07934531    2.02117376      16
Cr     1.72772557   -0.09629420    1.81805166      17
Co    -0.00785046    1.63330671   -1.69189033      18
