          18
Lattice="  24.8920   0.0000   0.0000   0.0000  24.8920   0.0000   0.0000   0.0000  24.8920 " ConfE="      -5936.6124" DelE="          0.0000"
Ni    -3.50529284    0.08217131    0.00092972       1
Ni    -0.03975405   -3.41354733   -0.00833426       2
Ni     3.59135215    0.04801858   -0.01504475       3
Co     0.02475480    3.64654181   -0.00329795       4
Cr    -0.05926618   -0.02444727   -3.52351859       5
Ni     0.03233517    0.09486923    3.53577730       6
Co    -1.74579337    0.03234530   -1.76445556       7
Co    -1.73358438    0.11153188    1.77068831       8
Cr    -0.10578063   -1.64610334   -1.70763382       9
Cr    -0.01976211   -1.65319980    1.69515666      10
Ni    -1.76636512    1.86700191    0.00828916      11
Ni     1.83621254   -1.70455465   -0.01092558      12
Cr     1.78905950    1.82561551    0.01516015      13
Cr     0.04557891    1.74843681   -1.72079226      14
Co     0.02700420    1.84584956    1.73360555      15
Co     1.81757284    0.03031585   -1.83036698      16
Co     1.81927414    0.09032531    1.75184812      17
Co     0.00000000    0.00000000    0.00000000      18
          18
Lattice="  24.8920   0.0000   0.0000   0.0000  24.8920   0.0000   0.0000   0.0000  24.8920 " ConfE="      -5935.8396" DelE="          0.7728"
Ni    -3.49129301    0.06667120   -0.00325746       1
Ni    -0.03430773   -3.40237945   -0.02112453       2
Ni     3.59281667    0.03574567   -0.01754691       3
Co     0.02198597    3.62777381    0.00189375       4
Cr    -0.02505200    0.05359385   -3.63769525       5
Ni     0.04749144    0.09572179    3.57280606       6
Co    -1.76496780    0.07802879   -1.88031171       7
Co    -1.76289005    0.17787701    1.88257907       8
Cr    -0.01612644   -1.66445831   -1.93913613       9
Cr     0.09169060   -1.71011066    1.87243681      10
Ni    -1.76150446    1.81683724    0.01571758      11
Ni     1.75566835   -1.65843442   -0.03485231      12
Cr     1.74958988    1.76971154    0.03111767      13
Cr     0.02694496    1.59391166   -1.62410902      14
Co     0.03728960    1.80302907    1.70828561      15
Co     1.80741387    0.03359496   -1.84238957      16
Co     1.79150128    0.07328253    1.74205701      17
Co    -0.85713925   -0.94704988    0.01845630      18
          18
Lattice="  24.8920   0.0000   0.0000   0.0000  24.8920   0.0000   0.0000   0.0000  24.8920 " ConfE="      -5936.5458" DelE="          0.0666"
Ni    -3.54825947    0.09871937    0.00599892       1
Ni     0.00173566   -3.46722460    0.00236217       2
Ni     3.60544634    0.04792350   -0.01893171       3
Co     0.02588921    3.64958105   -0.00121543       4
Cr    -0.03300825   -0.00356092   -3.58346279       5
Ni     0.03206576    0.10614705    3.55151661       6
Co    -1.71704693    0.06933551   -1.76451286       7
Co    -1.71214894    0.12499484    1.76947065       8
Cr    -0.06028584   -1.58639576   -1.69962463       9
Cr     0.01144999   -1.59795840    1.67384933      10
Ni    -1.76125393    1.83623412    0.01372552      11
Ni     1.78227350   -1.66058039   -0.02048832      12
Cr     1.77917380    1.81328677    0.03064627      13
Cr     0.05635434    1.64021451   -1.63365392      14
Co     0.03518823    1.81477417    1.69762491      15
Co     1.81347620    0.04439960   -1.82771042      16
Co     1.78909163    0.10246271    1.71688758      17
Co    -1.69706543   -1.64582990    0.01792610      18
