          19
Lattice="  24.8920   0.0000   0.0000   0.0000  24.8920   0.0000   0.0000   0.0000  24.8920 " ConfE="      -5941.2893" DelE="          0.0000"
Ni     2.67550281    0.01233681    2.68164902       1
Ni     3.42983030   -0.01056717    0.04403632       2
Co    -0.08474230   -3.56268143   -0.07718122       3
Co     0.04946077    0.01496926    3.45770512       4
Cr    -0.08051695    3.58631316   -0.06951610       5
Cr    -3.66889995    0.03904535   -0.00967686       6
Co    -0.06242773   -0.01821505   -3.63075051       7
Ni     1.71273176   -1.78743234   -0.01760570       8
Ni    -0.05390024   -1.76525602    1.71727541       9
Co     1.64710678    1.76209757    0.02785279      10
Ni    -1.86834146   -1.74338017   -0.04027673      11
Cr     0.01962511    1.70580378    1.77635245      12
Ni    -1.81874058    1.76222817   -0.02366311      13
Co     1.68991658    0.01316796   -1.83273612      14
Co    -0.07734371   -1.74765800   -1.83491609      15
Cr    -1.82791198    0.03828249    1.78079029      16
Cr    -0.07885005    1.72102496   -1.91657798      17
Co    -1.82034733    0.04472010   -1.81771798      18
Cr     0.00000000    0.00000000    0.00000000      19
          19
Lattice="  24.8920   0.0000   0.0000   0.0000  24.8920   0.0000   0.0000   0.0000  24.8920 " ConfE="      -5939.9320" DelE="          1.3573"
Ni     2.70094630   -0.01744773    2.70684293       1
Ni     3.38041760   -0.01935767    0.03310808       2
Co    -0.09209540   -3.69107307   -0.08704315       3
Co     0.03517256    0.01301270    3.38120537       4
Cr    -0.07785565    3.73939049   -0.05578095       5
Cr    -3.54286232    0.02715597   -0.04533337       6
Co    -0.12339682   -0.01833419   -3.55196938       7
Ni     1.68675467   -1.90981539   -0.06612770       8
Ni    -0.10376404   -1.87848827    1.69287046       9
Co     1.71672400    1.97096477   -0.05103572      10
Ni    -1.86292977   -1.91457385   -0.01788517      11
Cr    -0.10345585    1.90604740    1.75637012      12
Ni    -1.84121474    1.96840305    0.00134075      13
Co     1.57689610    0.00614257   -1.74127836      14
Co    -0.03362266   -1.91914014   -1.88269896      15
Cr    -1.77031073    0.05640304    1.65520704      16
Cr    -0.02220214    1.82890058   -1.84056300      17
Co    -1.08501170    0.02793679   -1.09083906      18
Cr     0.81409650    0.08806550    0.76857364      19
          19
Lattice="  24.8920   0.0000   0.0000   0.0000  24.8920   0.0000   0.0000   0.0000  24.8920 " ConfE="      -5941.5258" DelE="         -0.2365"
Ni     3.46567558    0.02716155    3.43958368       1
Ni     3.47889377    0.00119965   -0.07839962       2
Co    -0.09636978   -3.56043651   -0.08430931       3
Co    -0.02422961    0.00976257    3.51921255       4
Cr    -0.09344188    3.53225000   -0.08111684       5
Cr    -3.66278861    0.03325942   -0.02073699       6
Co    -0.11382720   -0.00922312   -3.61726963       7
Ni     1.67573574   -1.77302613   -0.09268779       8
Ni    -0.09600203   -1.75637911    1.68951868       9
Co     1.65164546    1.78997208   -0.06957741      10
Ni    -1.88919283   -1.71055451   -0.07979780      11
Cr    -0.09445641    1.76031025    1.73800777      12
Ni    -1.87464307    1.75045220   -0.07808077      13
Co     1.68559399    0.02204451   -1.84908323      14
Co    -0.11509752   -1.73678197   -1.88075099      15
Cr    -1.83848702    0.04067318    1.79279301      16
Cr    -0.16915481    1.66681252   -1.95891839      17
Co    -0.13107069    0.05146873   -0.10399513      18
Cr     1.66880646    0.01641978    1.65202569      19
