          18
Lattice="  24.8920   0.0000   0.0000   0.0000  24.8920   0.0000   0.0000   0.0000  24.8920 " ConfE="      -5949.7672" DelE="          0.0000"
Ni    -3.51700865   -0.00051447   -0.00293120       1
Ni     0.02208889    3.51790652    0.02680100       2
Ni     0.01296872   -3.54162478    0.00070193       3
Cr     0.05427230   -0.10253563    3.51033584       4
Cr     0.03774411    0.01121710   -3.56045780       5
Cr     3.56002151   -0.00662946   -0.02745950       6
Ni    -1.75233090    1.73584763   -0.02124884       7
Ni     1.77562064   -0.00000272   -1.78214045       8
Co    -1.79274442   -1.71355577    0.04684802       9
Ni    -0.00686527    1.78207126   -1.79917847      10
Ni    -0.00010481   -1.79883162   -1.77722900      11
Ni     1.81373152   -1.77503405   -0.00281060      12
Cr    -0.04214585    1.61573397    1.83268177      13
Co    -0.00204343   -1.68910758    1.80989304      14
Cr    -1.76940356   -0.07311401   -1.87044539      15
Co     1.83963667   -0.00844830    1.76106521      16
Cr     1.83582436    1.76219706   -0.04266849      17
Ni     0.00000000    0.00000000    0.00000000      18
          18
Lattice="  24.8920   0.0000   0.0000   0.0000  24.8920   0.0000   0.0000   0.0000  24.8920 " ConfE="      -5949.0620" DelE="          0.7052"
Ni    -3.48115467    0.00942413   -0.00759184       1
Ni     0.02393576    3.57010844    0.01414244       2
Ni     0.01832776   -3.59522429   -0.01082764       3
Cr     0.02512995   -0.07461425    3.44602890       4
Cr     0.02317750    0.00555570   -3.56649828       5
Cr     3.56480352   -0.00221940   -0.02656703       6
Ni    -1.79880158    1.86954915   -0.07694633       7
Ni     1.71859306    0.00118227   -1.73294371       8
Co    -1.82013687   -1.83339805    0.02184811       9
Ni    -0.01393715    1.79026765   -1.78816177      10
Ni    -0.00920258   -1.79754102   -1.75020211      11
Ni     1.79459397   -1.77973475    0.00351969      12
Cr     0.03124651    1.86036714    1.87723035      13
Co     0.08417964   -1.89746443    1.85281353      14
Cr    -1.70569028   -0.06772884   -1.78853277      15
Co     1.78200289   -0.01136362    1.73888074      16
Cr     1.70019149    1.67765013    0.02495359      17
Ni    -0.62117453    0.04102983    0.75433138      18
          18
Lattice="  24.8920   0.0000   0.0000   0.0000  24.8920   0.0000   0.0000   0.0000  24.8920 " ConfE="      -5949.7850" DelE="         -0.0177"
Ni    -3.54916154   -0.00231447   -0.02197005       1
Ni     0.02424762    3.54222649    0.01805297       2
Ni     0.01875749   -3.55982680   -0.01073062       3
Cr     0.07950743   -0.09718544    3.55302589       4
Cr     0.03734353    0.01015026   -3.57274962       5
Cr     3.57577907   -0.00667868   -0.02979999       6
Ni    -1.72358732    1.71810182   -0.03071620       7
Ni     1.74249350    0.00104091   -1.74488440       8
Co    -1.73919573   -1.69894507   -0.03009405       9
Ni    -0.00863320    1.74443656   -1.76244701      10
Ni     0.00852702   -1.77742821   -1.76579948      11
Ni     1.79813008   -1.75330078   -0.00433644      12
Cr     0.04129095    1.63077061    1.75759827      13
Co     0.04182991   -1.71300286    1.77743137      14
Cr    -1.74451507   -0.09252866   -1.81912284      15
Co     1.76707040    0.01990239    1.71956354      16
Cr     1.80608580    1.73566101   -0.02477504      17
Ni    -1.73466982   -0.01525395    1.74933009      18
