          18
Lattice="  24.8920   0.0000   0.0000   0.0000  24.8920   0.0000   0.0000   0.0000  24.8920 " ConfE="      -5934.5985" DelE="          0.0000"
Cr    -3.09808861   -0.01068175    0.00372317       1
Cr     0.03225639   -0.04737865    3.11260471       2
Cr     3.82527034   -0.05795790   -0.17226319       3
Co     0.28296339   -0.09568523   -3.77017178       4
Co     0.24256875   -3.65657093   -0.21953452       5
Cr     0.26678885    3.53850865   -0.22781017       6
Co    -1.54676663   -1.84732613   -0.16857368       7
Co    -1.54811179    1.76047352   -0.19261693       8
Cr     0.23467841   -1.88798927    1.52037354       9
Co     0.23578822    1.74653462    1.54534663      10
Ni    -1.55320272   -0.03690476   -2.00644757      11
Co     2.04046214   -0.04795484    1.56297917      12
Cr     1.98198675   -0.05699536   -1.88792992      13
Ni     0.22760549   -1.80166410   -1.92795543      14
Ni     0.20423950    1.72123373   -1.97822082      15
Cr     2.01858828   -1.81769164   -0.18810147      16
Co     1.98526267    1.70671563   -0.21520002      17
Cr     0.00000000    0.00000000    0.00000000      18
          18
Lattice="  24.8920   0.0000   0.0000   0.0000  24.8920   0.0000   0.0000   0.0000  24.8920 " ConfE="      -5933.9346" DelE="          0.6639"
Cr    -3.24349409   -0.00995054   -0.08117786       1
Cr     0.10366788   -0.03073676    3.26495171       2
Cr     3.75904761   -0.06791463   -0.16581899       3
Co     0.26435284   -0.09657496   -3.76590462       4
Co     0.25278473   -3.71160146   -0.23734257       5
Cr     0.28755584    3.60387279   -0.24645403       6
Co    -1.55828565   -1.97879277   -0.24765410       7
Co    -1.54439241    1.84083996   -0.20697981       8
Cr     0.21450472   -2.00967314    1.56973134       9
Co     0.24788686    1.81906089    1.54518237      10
Ni    -1.52784092   -0.03983654   -1.92216270      11
Co     1.90779920   -0.05589585    1.53811617      12
Cr     1.93547009   -0.04917251   -1.86701728      13
Ni     0.21790389   -1.81750016   -1.93874576      14
Ni     0.19794444    1.72247179   -1.95340715      15
Cr     1.89332919   -1.74470104   -0.16450291      16
Co     1.95065401    1.69569933   -0.21375496      17
Cr    -0.70717973   -0.08472689    0.68577607      18
          18
Lattice="  24.8920   0.0000   0.0000   0.0000  24.8920   0.0000   0.0000   0.0000  24.8920 " ConfE="      -5934.3630" DelE="          0.2355"
Cr    -3.33105784   -0.03597768   -0.21539848       1
Cr     0.22986960   -0.02482576    3.33878381       2
Cr     3.81203267   -0.05964695   -0.18197015       3
Co     0.29759097   -0.08935921   -3.79506956       4
Co     0.24238678   -3.65687327   -0.22371373       5
Cr     0.27102475    3.54383354   -0.23074397       6
Co    -1.50662723   -1.80192353   -0.20348182       7
Co    -1.52745026    1.72404428   -0.21691778       8
Cr     0.23042057   -1.80202018    1.48046535       9
Co     0.25096952    1.69787208    1.50221795      10
Ni    -1.51799311   -0.03684032   -1.98577797      11
Co     1.98272231   -0.04721287    1.51528789      12
Cr     1.96310130   -0.04543548   -1.87439853      13
Ni     0.24448743   -1.80473420   -1.95833600      14
Ni     0.22436664    1.72265210   -1.98427825      15
Cr     1.98494661   -1.77920564   -0.20008486      16
Co     1.99510286    1.71124228   -0.23727241      17
Cr    -1.45657423    0.00043004    1.44626780      18
