          18
Lattice="  24.8920   0.0000   0.0000   0.0000  24.8920   0.0000   0.0000   0.0000  24.8920 " ConfE="      -5932.5072" DelE="          0.0000"
Cr    -0.02387497   -3.45632047    0.03406531       1
Cr     3.44366506    0.06219862    0.10869298       2
Ni     0.00469532    0.01814202    3.56255105       3
Cr    -3.57425904    0.04750100   -0.02013961       4
Cr    -0.07503823    3.61270230    0.04410285       5
Cr    -0.01069987   -0.03538614   -3.56542297       6
Co    -0.00798496   -1.75247193    1.74807609       7
Co     1.76580118    0.03667330    1.73531834       8
Co    -0.01059616   -1.73718161   -1.73657196       9
Cr     1.81280739   -0.09795067   -1.63572454      10
Ni    -1.80398283    1.81424314   -0.01311535      11
Cr    -0.04471492    1.78312776    1.79429278      12
Cr    -1.77454296    0.00867865    1.76732040      13
Cr    -1.85668415   -1.76593671    0.00213580      14
Co     1.70970171    1.89247350   -0.01717119      15
Cr    -0.00574585    1.76490086   -1.82550682      16
Co    -1.78682829    0.01971475   -1.81020044      17
Ni     0.00000000    0.00000000    0.00000000      18
          18
Lattice="  24.8920   0.0000   0.0000   0.0000  24.8920   0.0000   0.0000   0.0000  24.8920 " ConfE="      -5931.9114" DelE="          0.5958"
Cr    -0.03745045   -3.48047888    0.02145971       1
Cr     3.44009344    0.02145629    0.05321408       2
Ni     0.00144626    0.07333483    3.63149490       3
Cr    -3.58212138    0.02374048    0.00485273       4
Cr    -0.06751011    3.61933959    0.03410233       5
Cr    -0.06144493    0.13267573   -3.62249385       6
Co    -0.08837584   -1.74763004    1.95455000       7
Co     1.75590835    0.09961183    1.84956008       8
Co    -0.13315274   -1.76360157   -1.99116624       9
Cr     1.73298556    0.03609356   -1.86452042      10
Ni    -1.82443938    1.80676543    0.00545011      11
Cr     0.00244801    1.71217281    1.67480783      12
Cr    -1.66981903   -0.00380102    1.70778273      13
Cr    -1.74237124   -1.72310297   -0.01357392      14
Co     1.73423798    1.83387969   -0.01569964      15
Cr    -0.00454799    1.70056644   -1.63953092      16
Co    -1.75272222    0.02980116   -1.76384978      17
Ni     0.99872160   -1.15161150   -0.02719782      18
          18
Lattice="  24.8920   0.0000   0.0000   0.0000  24.8920   0.0000   0.0000   0.0000  24.8920 " ConfE="      -5932.4185" DelE="          0.0887"
Cr    -0.07448729   -3.53248907    0.02438008       1
Cr     3.51545695    0.08047976    0.06159563       2
Ni     0.00004323    0.04038736    3.58913587       3
Cr    -3.59914338    0.04689945   -0.01134703       4
Cr    -0.08013599    3.65227666    0.04099617       5
Cr    -0.03685170   -0.01050093   -3.59453320       6
Co    -0.04990039   -1.69264992    1.75447603       7
Co     1.69264144    0.09464115    1.71978623       8
Co    -0.04554634   -1.67698084   -1.70131166       9
Cr     1.68699480    0.00204701   -1.67654531      10
Ni    -1.79616846    1.80143862   -0.00524080      11
Cr    -0.02395270    1.74764968    1.71217107      12
Cr    -1.70593564    0.00673319    1.70862401      13
Cr    -1.80231170   -1.72826677    0.00618267      14
Co     1.69570096    1.84523177   -0.03304929      15
Cr    -0.02505680    1.74292568   -1.74009856      16
Co    -1.76724855    0.03144254   -1.76952871      17
Ni     1.73616933   -1.73707121    0.03645824      18
