          18
Lattice="  24.8920   0.0000   0.0000   0.0000  24.8920   0.0000   0.0000   0.0000  24.8920 " ConfE="      -5939.3611" DelE="          0.0000"
Cr    -0.11380332   -3.56476943    0.02097131       1
Cr     3.41033154    0.05907896    0.02507711       2
Cr    -0.02621235    3.59429149    0.02351671       3
Co    -3.66653634    0.01175186    0.03374064       4
Cr     0.00944115   -0.00915696   -3.38777444       5
Co    -0.06559072    0.04486929    3.67754308       6
Co    -0.01685352   -1.78743631   -1.67128890       7
Ni    -0.05755869   -1.73730281    1.76703556       8
Co     1.75230232    0.00100849   -1.69325267       9
Ni     1.69510370    0.01480041    1.82359630      10
Ni    -1.84921998   -1.74208584    0.06347562      11
Ni     1.69476873    1.83418686    0.06458912      12
Ni    -1.83558059    1.80016929    0.05012688      13
Ni    -1.83377240    0.02147043   -1.70517303      14
Ni    -1.83549702    0.02301053    1.83865843      15
Co    -0.04542370    1.82960714   -1.74339350      16
Ni    -0.07698830    1.79592656    1.82830916      17
Co     0.00000000    0.00000000    0.00000000      18
          18
Lattice="  24.8920   0.0000   0.0000   0.0000  24.8920   0.0000   0.0000   0.0000  24.8920 " ConfE="      -5939.0122" DelE="          0.3489"
Cr    -0.07720480   -3.53603655    0.03395062       1
Cr     3.31450710    0.03838452    0.03304198       2
Cr    -0.01202581    3.62437763    0.02842509       3
Co    -3.63324883   -0.00457676    0.03854594       4
Cr    -0.00400772    0.01102896   -3.45765322       5
Co    -0.09072043    0.05306084    3.74277272       6
Co    -0.04903048   -1.84652981   -1.85627969       7
Ni    -0.08577102   -1.76111695    1.90430025       8
Co     1.78848850    0.06773499   -1.88409742       9
Ni     1.68837892    0.05976500    1.97178671      10
Ni    -1.74879032   -1.73020889    0.06767674      11
Ni     1.65714337    1.78883926    0.07386507      12
Ni    -1.78699115    1.78234077    0.05824208      13
Ni    -1.73916677    0.00500880   -1.67079244      14
Ni    -1.79874912    0.01768309    1.84522360      15
Co    -0.02662121    1.80735653   -1.73444550      16
Ni    -0.07287390    1.78496167    1.83572318      17
Co     0.64430998   -0.62312747   -0.03250977      18
          18
Lattice="  24.8920   0.0000   0.0000   0.0000  24.8920   0.0000   0.0000   0.0000  24.8920 " ConfE="      -5940.1928" DelE="         -0.8317"
Cr    -0.09510699   -3.60501868    0.03571242       1
Cr     3.45745256    0.07076592    0.03738900       2
Cr    -0.02221794    3.62638681    0.02620768       3
Co    -3.65822992    0.00542010    0.03617722       4
Cr    -0.00837667    0.01346407   -3.44769204       5
Co    -0.07108000    0.05116505    3.70038091       6
Co    -0.03665630   -1.76373356   -1.70295715       7
Ni    -0.06968333   -1.72769853    1.78928945       8
Co     1.69197613    0.03290209   -1.70144720       9
Ni     1.66966111    0.02945416    1.83403860      10
Ni    -1.78271053   -1.72660992    0.06213273      11
Ni     1.65252492    1.78189834    0.06961341      12
Ni    -1.81043580    1.79535450    0.05359276      13
Ni    -1.78741001    0.02431846   -1.68294919      14
Ni    -1.82841382    0.02380966    1.84096053      15
Co    -0.05137945    1.82398765   -1.73532798      16
Ni    -0.08322346    1.79183343    1.82395856      17
Co     1.71393869   -1.73553105    0.04711482      18
