          18
Lattice="  24.8920   0.0000   0.0000   0.0000  24.8920   0.0000   0.0000   0.0000  24.8920 " ConfE="      -5948.2307" DelE="          0.0000"
Cr    -0.01373178   -3.42111817   -0.06485831       1
Ni    -0.02236925    0.05758539    3.43589816       2
Co     0.02163203    3.63921031   -0.06891627       3
Cr    -0.11744226    0.04605097   -3.56314009       4
Ni     3.54429466    0.06209402   -0.05260662       5
Ni    -3.52503421    0.10978562   -0.08316094       6
Ni     1.78062260   -1.71932119   -0.02080285       7
Cr    -1.71031767   -1.67994021   -0.03043156       8
Cr     1.72020504    0.01482856    1.71084956       9
Cr    -1.73545206    0.02960093    1.65999081      10
Co    -0.00595877   -1.69247211   -1.84792926      11
Co     0.00021091    1.87983361    1.67443958      12
Cr    -0.05716696    1.85488461   -1.73957383      13
Ni     1.76094699    0.09595953   -1.83504447      14
Co    -1.75518173    0.08031661   -1.82061429      15
Cr     1.71664891    1.81978324   -0.04777739      16
Co    -1.72025208    1.86694468   -0.08442386      17
Co     0.00000000    0.00000000    0.00000000      18
          18
Lattice="  24.8920   0.0000   0.0000   0.0000  24.8920   0.0000   0.0000   0.0000  24.8920 " ConfE="      -5947.5836" DelE="          0.6471"
Cr    -0.01878387   -3.39300085   -0.04719138       1
Ni    -0.01902242    0.06687594    3.44644916       2
Co     0.02100294    3.61805082   -0.05897706       3
Cr    -0.11497395    0.02167413   -3.57317688       4
Ni     3.60231864    0.07693917   -0.06793373       5
Ni    -3.58658932    0.12535011   -0.09809320       6
Ni     1.90618016   -1.73505297   -0.05608817       7
Cr    -1.84140481   -1.67111522   -0.08983315       8
Cr     1.89086484    0.04168001    1.73337800       9
Cr    -1.90399196    0.09971760    1.67886260      10
Co    -0.01466774   -1.64629602   -1.70533409      11
Co     0.00986565    1.74787094    1.61066449      12
Cr    -0.06350606    1.78998377   -1.70200111      13
Ni     1.74480640    0.09454277   -1.78589831      14
Co    -1.73649854    0.07585481   -1.77465459      15
Cr     1.67187979    1.74244090   -0.01564713      16
Co    -1.71654496    1.81978958   -0.07359527      17
Co    -0.02661887   -0.98264546    1.09476304      18
          18
Lattice="  24.8920   0.0000   0.0000   0.0000  24.8920   0.0000   0.0000   0.0000  24.8920 " ConfE="      -5948.0359" DelE="          0.1948"
Cr    -0.00623420   -3.47177117   -0.08314801       1
Ni    -0.02299449    0.08306137    3.50315041       2
Co     0.01859022    3.65761588   -0.07314163       3
Cr    -0.12355464    0.04499442   -3.59855828       4
Ni     3.54537734    0.06954154   -0.05450248       5
Ni    -3.52755009    0.11471248   -0.09119252       6
Ni     1.76587445   -1.68879817   -0.03872466       7
Cr    -1.68637431   -1.64793969   -0.07535290       8
Cr     1.58476332    0.10757522    1.59307953       9
Cr    -1.67123253    0.06886370    1.59974466      10
Co    -0.02152957   -1.66759015   -1.78356760      11
Co    -0.00214467    1.83116957    1.64219084      12
Cr    -0.06801285    1.83265730   -1.73404769      13
Ni     1.71988184    0.10874157   -1.80966729      14
Co    -1.70749548    0.08849449   -1.78813041      15
Cr     1.68753159    1.82177097   -0.08024859      16
Co    -1.69512066    1.84825003   -0.09720538      17
Co    -0.01705479   -1.65511047    1.68441215      18
