          18
Lattice="  24.8920   0.0000   0.0000   0.0000  24.8920   0.0000   0.0000   0.0000  24.8920 " ConfE="      -5949.9795" DelE="          0.0000"
Ni     3.44476663   -0.05854200    0.00772519       1
Ni    -0.04695969   -0.08005027    3.54536100       2
Co    -0.00331169    3.43927403    0.01947480       3
Cr     0.03574606   -0.04466419   -3.47825299       4
Cr    -3.62000378   -0.06390077    0.03177477       5
Co    -0.03527233   -3.71475725   -0.01042927       6
Co     1.71460677   -0.07135658   -1.80033222       7
Ni    -1.83243750   -0.07537193   -1.79133224       8
Co    -0.01388194    1.70523375   -1.74653266       9
Co     1.72720488   -0.03773745    1.75528543      10
Ni    -0.01495587   -1.86476124    1.75833342      11
Ni    -1.79396719   -0.08890908    1.78063475      12
Cr     0.04652770    1.71568882    1.67068148      13
Co     1.70240680   -1.88184198   -0.01213657      14
Co    -0.04620988   -1.87779712   -1.75638642      15
Cr    -1.71836698   -1.85866882   -0.03797124      16
Cr    -1.82448235    1.68037897    0.00975956      17
Co     0.00000000    0.00000000    0.00000000      18
          18
Lattice="  24.8920   0.0000   0.0000   0.0000  24.8920   0.0000   0.0000   0.0000  24.8920 " ConfE="      -5949.3538" DelE="          0.6257"
Ni     3.43475418   -0.06661887    0.01208549       1
Ni    -0.04574736   -0.09484459    3.58639160       2
Co    -0.00586943    3.42179842    0.00673235       3
Cr     0.00238503   -0.07547109   -3.57536415       4
Cr    -3.61530551   -0.03954815    0.03394971       5
Co    -0.03277818   -3.70766164   -0.00246601       6
Co     1.69564869   -0.12695510   -1.92909480       7
Ni    -1.80265318   -0.06335887   -1.79140387       8
Co    -0.06294030    1.71817154   -1.92210799       9
Co     1.79828541   -0.13285524    1.90590159      10
Ni    -0.00135746   -1.84807467    1.75761437      11
Ni    -1.73762694   -0.08890075    1.76311873      12
Cr    -0.01667803    1.74561953    1.83097225      13
Co     1.66193890   -1.78561610   -0.02067938      14
Co    -0.05615703   -1.85187948   -1.74335947      15
Cr    -1.66429401   -1.78200794   -0.04612403      16
Cr    -1.66773211    1.60929006    0.01083515      17
Co     1.03770231    1.02788739    0.02461219      18
          18
Lattice="  24.8920   0.0000   0.0000   0.0000  24.8920   0.0000   0.0000   0.0000  24.8920 " ConfE="      -5949.8170" DelE="          0.1625"
Ni     3.49011912   -0.09442081    0.01573377       1
Ni    -0.04796887   -0.08752534    3.56085462       2
Co    -0.03544278    3.50211347    0.01625510       3
Cr     0.02138823   -0.06019977   -3.52197298       4
Cr    -3.65114998   -0.05718654    0.03409364       5
Co    -0.03639710   -3.72474334   -0.00866325       6
Co     1.67824145   -0.10091800   -1.79286135       7
Ni    -1.82993011   -0.08703376   -1.77622213       8
Co    -0.06739449    1.65837038   -1.71452444       9
Co     1.72413075   -0.08280450    1.76426951      10
Ni    -0.01276722   -1.85160438    1.73464072      11
Ni    -1.75217318   -0.08941346    1.73508426      12
Cr     0.02662073    1.68994637    1.68098651      13
Co     1.68518657   -1.84970484   -0.01981647      14
Co    -0.05934376   -1.86389013   -1.73788545      15
Cr    -1.69462869   -1.83730480   -0.04685747      16
Cr    -1.74370715    1.64645196    0.00199271      17
Co     1.64151909    1.62698239    0.03272882      18
