          19
Lattice="  24.8920   0.0000   0.0000   0.0000  24.8920   0.0000   0.0000   0.0000  24.8920 " ConfE="      -5937.2836" DelE="          0.0000"
Ni     2.70614960   -0.12922333   -2.58939269       1
Cr    -3.50152937   -0.05081371    0.17149793       2
Ni     0.01520634   -0.05478805    3.70385547       3
Ni     3.51167168   -0.06773104    0.07288846       4
Ni     0.04709810   -0.08381537   -3.37143566       5
Ni    -0.02539413   -3.56401799    0.15297086       6
Cr    -0.00072684    3.48141219    0.10924348       7
Co    -0.00854821   -1.85844978   -1.69611377       8
Cr     0.02540305    1.65662321   -1.60733240       9
Ni     1.75908396   -1.78156741    0.08970488      10
Ni     1.76207044    1.71290716    0.11447514      11
Co    -1.80310974   -0.04092115    1.88225652      12
Co    -1.79204943   -1.81001469    0.14347603      13
Co    -1.76283497    1.74955796    0.09891073      14
Ni     0.00093292   -1.79043969    1.89206318      15
Ni     0.00591047    1.69387528    1.88569174      16
Ni    -1.80017968   -0.07027567   -1.66201630      17
Ni     1.78960514   -0.06644438    1.91585150      18
Co     0.00000000    0.00000000    0.00000000      19
          19
Lattice="  24.8920   0.0000   0.0000   0.0000  24.8920   0.0000   0.0000   0.0000  24.8920 " ConfE="      -5936.7552" DelE="          0.5284"
Ni     2.77832070   -0.11586884   -2.63335697       1
Cr    -3.53049369   -0.04424154    0.15944700       2
Ni     0.01644020   -0.05982926    3.71058833       3
Ni     3.49499538   -0.06006998    0.06972052       4
Ni     0.04939533   -0.08569018   -3.36111549       5
Ni    -0.02425124   -3.60027978    0.16074674       6
Cr    -0.00210294    3.53249864    0.15544092       7
Co    -0.07721668   -2.01754366   -1.74576481       8
Cr    -0.01215945    1.85270425   -1.67383601       9
Ni     1.80179064   -1.87977944    0.12898846      10
Ni     1.78706036    1.81538709    0.15292093      11
Co    -1.80480468   -0.04629831    1.86422627      12
Co    -1.77154124   -1.81516997    0.14149507      13
Co    -1.70979099    1.72216083    0.08598949      14
Ni     0.00551301   -1.78333396    1.86509689      15
Ni     0.00946583    1.66501459    1.85218546      16
Ni    -1.72650601   -0.07480482   -1.61533320      17
Ni     1.77695085   -0.06790522    1.87562309      18
Co     0.70509847   -0.02565538   -0.82096051      19
          19
Lattice="  24.8920   0.0000   0.0000   0.0000  24.8920   0.0000   0.0000   0.0000  24.8920 " ConfE="      -5938.1443" DelE="         -0.8607"
Ni     3.55501224   -0.06542816   -3.39855502       1
Cr    -3.54655512   -0.04843134    0.18605823       2
Ni     0.00244537   -0.05891132    3.72819810       3
Ni     3.54543448   -0.05994896    0.16950881       4
Ni    -0.03227120   -0.07777221   -3.41947205       5
Ni    -0.02945072   -3.58419648    0.15918864       6
Cr    -0.00314927    3.52234928    0.13170524       7
Co    -0.03920537   -1.85834713   -1.67126915       8
Cr    -0.03111721    1.70947563   -1.61159674       9
Ni     1.73434892   -1.78362629    0.13459513      10
Ni     1.70634385    1.68279604    0.13312793      11
Co    -1.82905833   -0.04398641    1.88994210      12
Co    -1.78861017   -1.81173375    0.16866402      13
Co    -1.72702440    1.72347884    0.10411038      14
Ni    -0.01679246   -1.78566445    1.89164157      15
Ni    -0.01211111    1.66451048    1.87108518      16
Ni    -1.74959172   -0.07461379   -1.58618703      17
Ni     1.76379106   -0.07321715    1.92178038      18
Co     1.72580471   -0.08127933   -1.62568397      19
