          19
Lattice="  24.8920   0.0000   0.0000   0.0000  24.8920   0.0000   0.0000   0.0000  24.8920 " ConfE="      -5943.6043" DelE="          0.0000"
Co    -1.75470292   -1.67910301   -3.17240503       1
Co     0.14441552   -3.45610958    0.39081126       2
Co     3.48539200    0.04655315    0.31968487       3
Cr     2.45277319   -0.13736308    2.27051324       4
Cr    -3.51442144    0.14038298    0.36128160       5
Ni    -0.12761689    2.70107014    2.15567835       6
Co    -0.02528231    3.86820078    0.14801248       7
Ni     0.02747836    0.08538107   -3.14555906       8
Cr     1.84343001    0.14509666   -1.39392571       9
Ni    -1.78680644    0.09381227    2.13588011      10
Ni     0.10953809   -1.67779865    2.11613044      11
Co     0.54525034    0.62209408    2.07208539      12
Ni     0.13485259   -1.82795118   -1.45059149      13
Ni    -1.73259999   -1.68156185    0.36125207      14
Ni     0.03017577    1.95954546   -1.41811434      15
Ni    -1.73699477    1.93342889    0.38782072      16
Cr    -1.79713645    0.13035711   -1.43625764      17
Ni     1.76342386    1.90701702    0.41118841      18
Co     0.00000000    0.00000000    0.00000000      19
          19
Lattice="  24.8920   0.0000   0.0000   0.0000  24.8920   0.0000   0.0000   0.0000  24.8920 " ConfE="      -5943.5481" DelE="          0.0562"
Co    -1.76430940   -1.66488143   -3.18781386       1
Co     0.14787627   -3.43158075    0.39477841       2
Co     3.49584973    0.05386768    0.35574452       3
Cr     2.25334583   -0.13894149    2.21305975       4
Cr    -3.56714760    0.13191010    0.34995449       5
Ni    -0.08266902    2.85179866    2.11953426       6
Co    -0.03532076    3.86851648    0.07990610       7
Ni     0.03336517    0.07995460   -3.16457329       8
Cr     1.90492865    0.15594186   -1.49452382       9
Ni    -1.87859103    0.05485561    2.14504325      10
Ni     0.07128083   -1.65207416    2.16587824      11
Co     0.34335894    0.73070334    2.11000277      12
Ni     0.11294435   -1.84403242   -1.51573650      13
Ni    -1.69840227   -1.64139311    0.35304638      14
Ni     0.05834921    1.86475153   -1.35254706      15
Ni    -1.71226471    1.89618316    0.42342446      16
Cr    -1.72648178    0.11692827   -1.37728430      17
Ni     1.77518560    1.89955450    0.44579075      18
Co     0.42683144   -0.22165104    0.09317602      19
          19
Lattice="  24.8920   0.0000   0.0000   0.0000  24.8920   0.0000   0.0000   0.0000  24.8920 " ConfE="      -5947.8986" DelE="         -4.2943"
Co    -1.75890392   -1.66079927   -3.16234634       1
Co     0.05537565   -3.45431557    0.39502741       2
Co     3.53917764    0.10293611    0.39091959       3
Cr     1.85492638    0.00223182    2.14068953       4
Cr    -3.55242886    0.12035397    0.37885702       5
Ni     0.04828893    1.88067657    2.16620143       6
Co     0.01774743    3.70216143    0.39973367       7
Ni     0.03537424    0.09052059   -3.13511185       8
Cr     1.84695062    0.12231448   -1.34691031       9
Ni    -1.74184894    0.11844513    2.15102172      10
Ni     0.01023212   -1.64036237    2.16969364      11
Co     0.04332785    0.11368432    0.36818777      12
Ni     0.06211953   -1.69379201   -1.37797374      13
Ni    -1.75393059   -1.65463302    0.37300024      14
Ni     0.03938864    1.89793896   -1.37662477      15
Ni    -1.75258310    1.88560686    0.38072806      16
Cr    -1.78252094    0.13105834   -1.40017039      17
Ni     1.81200510    1.86125907    0.39779560      18
Co     1.79619520   -1.65144328    0.39815603      19
