          18
Lattice="  24.8920   0.0000   0.0000   0.0000  24.8920   0.0000   0.0000   0.0000  24.8920 " ConfE="      -5943.2193" DelE="          0.0000"
Ni    -0.02465859   -3.44682544   -0.04821586       1
Ni    -3.57759347    0.02059557    0.03119316       2
Co     0.01410332    0.03910505   -3.50762322       3
Cr     0.00843472    0.04183502    3.60451066       4
Co     3.51696616    0.03820653   -0.01359253       5
Co     0.04635202    3.54927110    0.04082408       6
Ni    -1.79676337   -1.74481804   -0.03579632       7
Ni    -1.77566792    0.03072606   -1.74695326       8
Ni    -0.00691910   -1.71471941    1.81496787       9
Cr     1.81575787   -1.74035321   -0.07812910      10
Ni    -0.01451838    1.82171635   -1.73087192      11
Cr     1.70317543   -0.00781513   -1.81131447      12
Ni    -1.80312533    0.01832626    1.80220037      13
Co     1.79214837    0.04149746    1.80000572      14
Cr     1.79580788    1.78768754    0.04455007      15
Cr    -0.01463266    1.76284764    1.83444516      16
Co    -1.74771034    1.83057596    0.04398152      17
Ni     0.00000000    0.00000000    0.00000000      18
          18
Lattice="  24.8920   0.0000   0.0000   0.0000  24.8920   0.0000   0.0000   0.0000  24.8920 " ConfE="      -5942.5428" DelE="          0.6765"
Ni    -0.02600716   -3.43209981   -0.01324816       1
Ni    -3.64000453    0.02787023    0.05160822       2
Co     0.00673514    0.02688482   -3.52139337       3
Cr     0.00791953    0.03569345    3.60761856       4
Co     3.57491065    0.04967778    0.00326990       5
Co     0.04076902    3.54166306    0.02346639       6
Ni    -1.94400411   -1.75799843    0.05319481       7
Ni    -1.88099007    0.04996836   -1.73897086       8
Ni     0.00350111   -1.66707653    1.74707927       9
Cr     2.02134458   -1.77929956    0.04378073      10
Ni     0.00295258    1.69918244   -1.68036316      11
Cr     1.90364528    0.08055735   -1.83304027      12
Ni    -1.79570231    0.01781361    1.78334900      13
Co     1.78316983    0.05015233    1.76399410      14
Cr     1.76473813    1.70623999    0.04578303      15
Cr    -0.01098924    1.69804357    1.77010059      16
Co    -1.71191819    1.78006399    0.05786396      17
Ni     0.08103590   -1.05713756   -0.97452866      18
          18
Lattice="  24.8920   0.0000   0.0000   0.0000  24.8920   0.0000   0.0000   0.0000  24.8920 " ConfE="      -5943.1669" DelE="          0.0524"
Ni    -0.02913413   -3.50243624    0.01007320       1
Ni    -3.59662133    0.01958231    0.04445287       2
Co     0.00959910    0.05857570   -3.55212363       3
Cr     0.00739459    0.04961696    3.61691761       4
Co     3.56084659    0.05051426   -0.00037728       5
Co     0.04050785    3.57038655    0.03620305       6
Ni    -1.80038170   -1.72190368    0.01329240       7
Ni    -1.77828838    0.04609039   -1.71461644       8
Ni    -0.00131733   -1.67542864    1.77283924       9
Cr     1.82052604   -1.69764494   -0.03641221      10
Ni    -0.00741873    1.76819512   -1.68876402      11
Cr     1.73608587    0.06563950   -1.73808635      12
Ni    -1.78865850    0.02623843    1.79777361      13
Co     1.75994653    0.06846024    1.75400107      14
Cr     1.76047452    1.75410692    0.05977464      15
Cr    -0.02170004    1.73881059    1.79757949      16
Co    -1.70236107    1.79977147    0.07431666      17
Ni    -0.00848901   -1.71231856   -1.71763761      18
