          18
Lattice="  24.8920   0.0000   0.0000   0.0000  24.8920   0.0000   0.0000   0.0000  24.8920 " ConfE="      -5936.9595" DelE="          0.0000"
Ni    -0.03227209   -3.55186990   -0.05529839       1
Co    -0.05363328   -0.01891312    3.50332889       2
Cr     3.45809548   -0.16617998    0.00500358       3
Co    -3.60211417   -0.04560211   -0.05500217       4
Co    -0.05208311   -0.01763509   -3.60834623       5
Co    -0.04394299    3.50560576   -0.05588452       6
Ni    -0.01466331   -1.75466612    1.69754518       7
Co     1.77167021   -1.74709284   -0.07399611       8
Ni    -1.83440549   -0.03422497    1.72913392       9
Ni     1.72049173    0.00360919   -1.81993602      10
Cr     0.00551075    1.65695083    1.66164231      11
Co     1.74329389    1.68514101    0.04214975      12
Ni    -1.84965287    1.73844586   -0.03976442      13
Ni    -1.81127048   -0.03529113   -1.81814906      14
Cr    -1.75885647   -1.80202945   -0.04158242      15
Co     0.01024162   -1.78147247   -1.85723993      16
Cr    -0.00993702    1.72294206   -1.74165337      17
Co     0.00000000    0.00000000    0.00000000      18
          18
Lattice="  24.8920   0.0000   0.0000   0.0000  24.8920   0.0000   0.0000   0.0000  24.8920 " ConfE="      -5936.4189" DelE="          0.5406"
Ni    -0.04157461   -3.62130117   -0.07126603       1
Co    -0.01192922   -0.02629230    3.42346074       2
Cr     3.42711891   -0.13776955    0.04308940       3
Co    -3.60109729   -0.05185347   -0.04958458       4
Co    -0.04247106   -0.01890023   -3.58818555       5
Co    -0.07032872    3.55551363   -0.04554581       6
Ni    -0.07425884   -1.90406929    1.70277194       7
Co     1.78659282   -1.89701102   -0.12690155       8
Ni    -1.75898496   -0.04545079    1.68041422       9
Ni     1.70028996   -0.00024991   -1.73413693      10
Cr    -0.06191249    1.81693431    1.67412825      11
Co     1.83649323    1.92354655   -0.08738646      12
Ni    -1.82990604    1.72842563   -0.03030831      13
Ni    -1.76885231   -0.03914070   -1.78049238      14
Cr    -1.71307426   -1.79815282   -0.05172335      15
Co     0.01332575   -1.79353825   -1.83227712      16
Cr     0.00934037    1.69212875   -1.64407643      17
Co     0.81501505    0.04195384    0.76524339      18
          18
Lattice="  24.8920   0.0000   0.0000   0.0000  24.8920   0.0000   0.0000   0.0000  24.8920 " ConfE="      -5936.9383" DelE="          0.0212"
Ni    -0.04424058   -3.58618022   -0.06236541       1
Co    -0.05830007   -0.02892746    3.53261507       2
Cr     3.49881619   -0.15815343   -0.02023892       3
Co    -3.60446957   -0.04299636   -0.05694264       4
Co    -0.05000145   -0.02544751   -3.62338784       5
Co    -0.05623301    3.54181541   -0.06391313       6
Ni    -0.03679689   -1.76039063    1.65207196       7
Co     1.74406577   -1.76266249   -0.10454386       8
Ni    -1.77382957   -0.03792423    1.68762802       9
Ni     1.68210729    0.00477050   -1.77918300      10
Cr     0.01244069    1.65000595    1.62770464      11
Co     1.68647186    1.71854035   -0.02670082      12
Ni    -1.80936850    1.71727781   -0.04801701      13
Ni    -1.78195404   -0.03685049   -1.80273432      14
Cr    -1.75026368   -1.80099258   -0.05606866      15
Co    -0.00172270   -1.77869063   -1.83751966      16
Cr    -0.01724553    1.71678403   -1.73644533      17
Co     1.69436724   -0.00067372    1.65329599      18
