          18
Lattice="  24.8920   0.0000   0.0000   0.0000  24.8920   0.0000   0.0000   0.0000  24.8920 " ConfE="      -5940.9034" DelE="          0.0000"
Ni     0.01554178    0.03462366    3.57332833       1
Co    -3.39914395    0.01499495   -0.05361068       2
Cr    -0.04629291    3.54978760   -0.00037317       3
Ni     0.02185866   -0.00379265   -3.54585733       4
Cr     3.64338370    0.12232564    0.04634355       5
Co     0.06340778   -3.56047708    0.02470288       6
Ni    -1.74591670    0.03508386    1.78555366       7
Cr    -0.07022966    1.83114073    1.70381893       8
Co    -0.03446071    1.79074263   -1.69946694       9
Cr    -1.73558468    0.06563798   -1.70740105      10
Ni     1.79109959    0.03727530    1.79294237      11
Ni     1.80755061   -0.00838834   -1.75236439      12
Co     0.02842364   -1.78427768    1.81143097      13
Cr    -1.67850271   -1.84591246    0.05214729      14
Co     1.81726897    1.79662202   -0.00456580      15
Co     0.00790954   -1.81243874   -1.80136719      16
Cr     1.76367854   -1.75631870    0.03281673      17
Cr     0.00000000    0.00000000    0.00000000      18
          18
Lattice="  24.8920   0.0000   0.0000   0.0000  24.8920   0.0000   0.0000   0.0000  24.8920 " ConfE="      -5940.2105" DelE="          0.6929"
Ni     0.02209546    0.02909400    3.62967460       1
Co    -3.34829261    0.01275004   -0.03429621       2
Cr    -0.01698388    3.54484920   -0.00572907       3
Ni     0.04268864   -0.01014538   -3.61344866       4
Cr     3.60377682    0.14581223    0.05362599       5
Co     0.05782134   -3.58574396    0.02620827       6
Ni    -1.76336900   -0.00337535    1.90648399       7
Cr    -0.00671598    1.88557938    1.92342826       8
Co     0.04196601    1.83357447   -1.91219557       9
Cr    -1.71539068   -0.05913283   -1.87518265      10
Ni     1.74323331    0.06231507    1.78784384      11
Ni     1.74553539    0.02068093   -1.73032915      12
Co     0.01702237   -1.74169765    1.79260605      13
Cr    -1.56479584   -1.78507856    0.05895313      14
Co     1.73271455    1.78459399    0.00208682      15
Co     0.01262824   -1.78131724   -1.78523049      16
Cr     1.59176090   -1.62293076    0.04286543      17
Cr    -0.74114484    0.83676744   -0.01721554      18
          18
Lattice="  24.8920   0.0000   0.0000   0.0000  24.8920   0.0000   0.0000   0.0000  24.8920 " ConfE="      -5940.7121" DelE="          0.1913"
Ni     0.02840045    0.02613572    3.61511297       1
Co    -3.45192850   -0.03029124   -0.03251163       2
Cr    -0.00666724    3.58957734   -0.00789527       3
Ni     0.03575243   -0.01252360   -3.58457521       4
Cr     3.61899200    0.12687537    0.05108395       5
Co     0.05654940   -3.59510331    0.01904165       6
Ni    -1.71950341    0.01469816    1.82773487       7
Cr     0.00677158    1.82477593    1.77677553       8
Co    -0.00868434    1.76526662   -1.73380485       9
Cr    -1.66685248   -0.01478620   -1.74129417      10
Ni     1.76203144    0.02854274    1.77842506      11
Ni     1.76018070   -0.01591637   -1.71751960      12
Co     0.03589312   -1.77173832    1.80031051      13
Cr    -1.48437070   -1.65120114    0.03570246      14
Co     1.73868495    1.76599859    0.00921422      15
Co     0.02189862   -1.81535159   -1.80271450      16
Cr     1.65217866   -1.69291993    0.04348771      17
Cr    -1.65134319    1.65948580    0.03145424      18
