          18
Lattice="  24.8920   0.0000   0.0000   0.0000  24.8920   0.0000   0.0000   0.0000  24.8920 " ConfE="      -5933.4692" DelE="          0.0000"
Ni     3.48215483   -0.00745744    0.05127146       1
Ni    -0.03676894   -3.55360717   -0.00185390       2
Cr    -0.04181746   -0.02097274    3.53184574       3
Cr    -0.07643444    3.56412076    0.02640473       4
Cr    -3.57977225   -0.06085979   -0.05656971       5
Cr    -0.00804891    0.02578229   -3.50608554       6
Ni     1.74076699    1.76265265    0.04136310       7
Ni    -1.84932786    1.76564429    0.00579569       8
Cr    -0.03919180    1.73077237    1.77888745       9
Cr     1.71947391   -1.75688894    0.00554224      10
Co     0.02609312   -1.68680482    1.78519682      11
Co     1.72508970    0.01321140   -1.79201244      12
Co    -0.05698175    1.83326534   -1.76093333      13
Cr    -1.77855433   -0.02869997   -1.78339867      14
Co    -1.88109984   -0.02680531    1.74566164      15
Co    -0.03413904   -1.79903566   -1.80103559      16
Co    -1.78799534   -1.76577810   -0.00805361      17
Cr     0.00000000    0.00000000    0.00000000      18
          18
Lattice="  24.8920   0.0000   0.0000   0.0000  24.8920   0.0000   0.0000   0.0000  24.8920 " ConfE="      -5932.6325" DelE="          0.8367"
Ni     3.43640346   -0.01315038    0.03309856       1
Ni    -0.04819648   -3.62345776   -0.02505464       2
Cr    -0.08484371   -0.01835997    3.55637080       3
Cr    -0.10389934    3.66129550   -0.02007608       4
Cr    -3.53028894   -0.05494080   -0.03683978       5
Cr     0.02533040    0.02033818   -3.49714882       6
Ni     1.74886867    1.90868427   -0.03155061       7
Ni    -1.77286557    1.75765973    0.01164310       8
Cr    -0.04712190    1.91518324    1.78421585       9
Cr     1.74711244   -1.92768762   -0.05383505      10
Co    -0.07749791   -1.91445970    1.81735130      11
Co     1.66120509    0.00242221   -1.70746809      12
Co    -0.04458779    1.81474402   -1.73555594      13
Cr    -1.66698151   -0.03630911   -1.71553207      14
Co    -1.75286182   -0.01149412    1.72435681      15
Co    -0.01709297   -1.79275616   -1.75162104      16
Co    -1.73370692   -1.73859746   -0.00656217      17
Cr     0.83273826   -0.05496148    0.86230906      18
          18
Lattice="  24.8920   0.0000   0.0000   0.0000  24.8920   0.0000   0.0000   0.0000  24.8920 " ConfE="      -5932.9720" DelE="          0.4973"
Ni     3.52512858   -0.00349846    0.01556529       1
Ni    -0.04945507   -3.57783568   -0.01873843       2
Cr    -0.08970569   -0.01802977    3.59680547       3
Cr    -0.08072848    3.57752780    0.01237594       4
Cr    -3.57007197   -0.06208324   -0.05766054       5
Cr    -0.00267248    0.02823112   -3.52537572       6
Ni     1.70201868    1.75989467    0.00889345       7
Ni    -1.81537306    1.74046247   -0.00620540       8
Cr    -0.09236139    1.74025355    1.75271001       9
Cr     1.67527345   -1.75448384   -0.05542631      10
Co    -0.04267793   -1.73067105    1.75400978      11
Co     1.68282463   -0.01038829   -1.73137368      12
Co    -0.06333645    1.80071849   -1.75442977      13
Cr    -1.71079563   -0.04060869   -1.74430345      14
Co    -1.82233546   -0.01848753    1.73330164      15
Co    -0.04245748   -1.77179242   -1.77786532      16
Co    -1.77300713   -1.72857393   -0.02498469      17
Cr     1.64641907   -0.03417046    1.70638579      18
