          18
Lattice="  24.8920   0.0000   0.0000   0.0000  24.8920   0.0000   0.0000   0.0000  24.8920 " ConfE="      -5940.8240" DelE="          0.0000"
Ni     0.03688569   -3.51134354   -0.00705543       1
Ni    -3.52937219   -0.00143880    0.01236009       2
Ni     3.61802617    0.03996949    0.01395954       3
Ni     0.05461119    0.02778296    3.58898596       4
Cr    -0.00676252    3.63242925    0.02382060       5
Cr     0.02868268    0.03643070   -3.52364164       6
Co     0.02138555   -1.72042635   -1.78000594       7
Cr    -1.69774278   -0.00263165   -1.68871848       8
Co     0.04359279   -1.73224438    1.77143944       9
Co    -1.74441196   -0.02460065    1.76637511      10
Ni     1.85407952   -1.76693446   -0.01188655      11
Ni     1.83790074   -0.00944412   -1.75578948      12
Co    -1.73976380    1.80463263    0.02013940      13
Cr     0.01998566    1.79878817   -1.75222702      14
Cr     1.77816209    1.79429450    0.00887784      15
Cr    -0.02621036    1.79395575    1.79386848      16
Cr     1.74991799   -0.01643308    1.74583128      17
Co     0.00000000    0.00000000    0.00000000      18
          18
Lattice="  24.8920   0.0000   0.0000   0.0000  24.8920   0.0000   0.0000   0.0000  24.8920 " ConfE="      -5939.9603" DelE="          0.8637"
Ni     0.03154099   -3.50158980   -0.01144560       1
Ni    -3.52812894    0.01115613    0.01623342       2
Ni     3.61425906    0.04109510    0.01398363       3
Ni     0.06845375    0.04012490    3.63881865       4
Cr    -0.04799155    3.65644335    0.02043692       5
Cr     0.04821590    0.05864174   -3.58703669       6
Co     0.10377043   -1.74003038   -1.90991644       7
Cr    -1.74044640    0.06751230   -1.86744038       8
Co     0.07721016   -1.73832315    1.87675742       9
Co    -1.77083809    0.06036173    1.95097575      10
Ni     1.80524164   -1.75832312   -0.02450790      11
Ni     1.78565822    0.00867433   -1.72200707      12
Co    -1.67800068    1.68815067    0.01736434      13
Cr     0.00210860    1.76201937   -1.69907601      14
Cr     1.73463248    1.76941892    0.01774556      15
Cr    -0.04518562    1.73883847    1.75153607      16
Cr     1.63582003   -0.03194112    1.64595489      17
Co    -1.14010949   -1.04349562   -0.02187204      18
          18
Lattice="  24.8920   0.0000   0.0000   0.0000  24.8920   0.0000   0.0000   0.0000  24.8920 " ConfE="      -5940.4024" DelE="          0.4215"
Ni     0.05157007   -3.54928339   -0.00499973       1
Ni    -3.56553474    0.02233716    0.01479477       2
Ni     3.62650146    0.03755086    0.01560634       3
Ni     0.05799227    0.03741714    3.60515259       4
Cr    -0.00945144    3.67042375    0.02059045       5
Cr     0.02885714    0.04507493   -3.55114688       6
Co     0.03969689   -1.70152533   -1.77859230       7
Cr    -1.64338296   -0.00156820   -1.64907324       8
Co     0.06186129   -1.69406865    1.75780208       9
Co    -1.71669196    0.01922085    1.77367622      10
Ni     1.82165271   -1.75652785   -0.01025649      11
Ni     1.80167585   -0.00140451   -1.72049776      12
Co    -1.68661032    1.75085132    0.01717869      13
Cr     0.01960470    1.77537932   -1.69578000      14
Cr     1.75242553    1.76582120    0.02869054      15
Cr    -0.01550562    1.77866044    1.76202177      16
Cr     1.70311858   -0.01732513    1.69913661      17
Co    -1.70386541   -1.71679770    0.00520949      18
