          18
Lattice="  24.8920   0.0000   0.0000   0.0000  24.8920   0.0000   0.0000   0.0000  24.8920 " ConfE="      -5938.2732" DelE="          0.0000"
Co    -3.57117374    0.04661542    0.00304268       1
Cr    -0.04554182    0.04695207   -3.44673935       2
Co     3.53173809    0.02685508    0.03209866       3
Cr     0.01629286    0.01710060    3.68124479       4
Cr     0.00221980   -3.49020846    0.07533352       5
Co    -0.03906919    3.67270114    0.02676488       6
Ni    -1.77923102   -1.69734030    0.05610403       7
Co    -1.81677772    1.79735743   -0.03203975       8
Ni    -0.07886765   -1.69798406   -1.74533487       9
Co    -0.07085633    1.76364926   -1.75881494      10
Ni    -1.77848533    0.04462612    1.85006682      11
Co     1.78613443    0.04082610   -1.77163017      12
Ni     1.72784420    0.06357102    1.80953792      13
Ni    -0.01901956   -1.70773691    1.85004029      14
Ni    -0.04669272    1.81004571    1.77915375      15
Cr     1.70454867   -1.67823226   -0.00517701      16
Ni     1.72493240    1.84071043    0.00941929      17
Co     0.00000000    0.00000000    0.00000000      18
          18
Lattice="  24.8920   0.0000   0.0000   0.0000  24.8920   0.0000   0.0000   0.0000  24.8920 " ConfE="      -5937.8446" DelE="          0.4287"
Co    -3.49947521    0.05246522   -0.01732102       1
Cr    -0.02949722    0.02662798   -3.31727336       2
Co     3.52332831    0.03417696    0.01084781       3
Cr     0.00680673    0.01077230    3.66056051       4
Cr     0.00029203   -3.63823413    0.14069189       5
Co    -0.02560131    3.75217306    0.03388651       6
Ni    -1.78882806   -1.84684611    0.09362293       7
Co    -1.87767096    1.99935225    0.01365664       8
Ni     0.01095628   -1.90197862   -1.69710652       9
Co     0.00473488    1.97534763   -1.78193327      10
Ni    -1.75848105    0.03588304    1.77357343      11
Co     1.67779235    0.01780282   -1.70479502      12
Ni     1.68240297    0.05760561    1.73233446      13
Ni    -0.01604756   -1.70909685    1.78430493      14
Ni    -0.06444605    1.79122198    1.70954080      15
Cr     1.72408462   -1.72895186    0.00555483      16
Ni     1.69285296    1.84666083   -0.01202393      17
Co    -0.84282786    0.10124081   -0.80499332      18
          18
Lattice="  24.8920   0.0000   0.0000   0.0000  24.8920   0.0000   0.0000   0.0000  24.8920 " ConfE="      -5938.8124" DelE="         -0.5392"
Co    -3.61043069    0.02514219    0.03791392       1
Cr    -0.01032702    0.03122883   -3.48773676       2
Co     3.54531936    0.02836880    0.02936642       3
Cr     0.02106628    0.01377040    3.69758234       4
Cr     0.00549713   -3.54559236    0.10030487       5
Co    -0.03468607    3.69793602    0.03470159       6
Ni    -1.74754134   -1.69769699    0.08258612       7
Co    -1.82276910    1.84425328    0.00138453       8
Ni    -0.02175872   -1.68990721   -1.67503543       9
Co    -0.04174644    1.78913730   -1.73275931      10
Ni    -1.76256755    0.04912809    1.81786020      11
Co     1.74972375    0.03845918   -1.73080027      12
Ni     1.70177225    0.05923405    1.76479707      13
Ni    -0.00200489   -1.69349984    1.82457003      14
Ni    -0.04709488    1.79144650    1.75842601      15
Cr     1.74110097   -1.70640353    0.01204580      16
Ni     1.70607565    1.82973342    0.00847194      17
Co    -1.78712780    0.06358621   -1.69287637      18
