          18
Lattice="  24.8920   0.0000   0.0000   0.0000  24.8920   0.0000   0.0000   0.0000  24.8920 " ConfE="      -5938.1443" DelE="          0.0000"
Ni    -3.47700278    0.00717006    0.04116234       1
Ni     0.03612572    0.00851184    3.54936208       2
Cr     3.59246993   -0.02042226    0.08438276       3
Ni     0.02924324    0.02607507   -3.55892168       4
Co     0.03547435   -3.48762329   -0.00892234       5
Co    -0.04895732    3.56508202   -0.00590940       6
Co    -1.76597899   -1.77609872   -0.04387540       7
Cr    -1.75885860    1.79171103    0.01648057       8
Ni     0.00644858   -1.70134822    1.76187906       9
Ni    -0.02100601    1.76397684    1.75989621      10
Ni    -1.75971463    0.00449327   -1.79221107      11
Ni     1.81812168    0.02197509    1.79711447      12
Ni     1.82771445    0.01660626   -1.77117268      13
Cr     0.04913743   -1.75730744   -1.68631245      14
Ni     0.02923049    1.78098588   -1.77881425      15
Co     1.84691898   -1.75398783   -0.02037308      16
Ni     1.80127565    1.78935997    0.02008697      17
Co     0.00000000    0.00000000    0.00000000      18
          18
Lattice="  24.8920   0.0000   0.0000   0.0000  24.8920   0.0000   0.0000   0.0000  24.8920 " ConfE="      -5937.5116" DelE="          0.6327"
Ni    -3.50118045    0.00031510    0.02580444       1
Ni     0.03607904    0.01690853    3.52078933       2
Cr     3.60768767   -0.02198673    0.10452867       3
Ni     0.02305593    0.02709250   -3.54895635       4
Co     0.03889006   -3.53474189   -0.00652976       5
Co    -0.04385528    3.61317722    0.00652254       6
Co    -1.81831002   -1.92177840   -0.10140162       7
Cr    -1.79318939    1.93508277   -0.01783628       8
Ni     0.05694600   -1.77463381    1.76327884       9
Ni     0.05071093    1.89277208    1.79589476      10
Ni    -1.73488758   -0.01136899   -1.72487489      11
Ni     1.77759237    0.02549351    1.76325986      12
Ni     1.78930560    0.00928881   -1.71892762      13
Cr     0.04203126   -1.74552862   -1.63798974      14
Ni     0.00992428    1.75715100   -1.71550671      15
Co     1.80281168   -1.75837824   -0.02700450      16
Ni     1.78058728    1.78100989    0.03139432      17
Co    -1.09510572    0.07645881    0.86389588      18
          18
Lattice="  24.8920   0.0000   0.0000   0.0000  24.8920   0.0000   0.0000   0.0000  24.8920 " ConfE="      -5938.0428" DelE="          0.1015"
Ni    -3.55805042    0.00865865   -0.02136286       1
Ni     0.04710716    0.01731852    3.56543811       2
Cr     3.62418145   -0.02518815    0.09054807       3
Ni     0.03093366    0.02427827   -3.56553866       4
Co     0.02984221   -3.50571355   -0.00426124       5
Co    -0.05366537    3.58274377   -0.00176155       6
Co    -1.74497433   -1.75857922   -0.06073753       7
Cr    -1.75368844    1.74423154    0.03964779       8
Ni     0.01870769   -1.67603514    1.72356153       9
Ni     0.02274626    1.77917345    1.74830151      10
Ni    -1.73562273   -0.00880825   -1.75540633      11
Ni     1.79911246    0.02010252    1.77355238      12
Ni     1.80870309    0.00106460   -1.74596427      13
Cr     0.06225969   -1.77171806   -1.68670753      14
Ni     0.01674367    1.73588305   -1.72418399      15
Co     1.81168457   -1.74800846   -0.03401155      16
Ni     1.79359318    1.76338315    0.01994687      17
Co    -1.75842798    0.08819983    1.64716920      18
