          18
Lattice="  24.8920   0.0000   0.0000   0.0000  24.8920   0.0000   0.0000   0.0000  24.8920 " ConfE="      -5938.2401" DelE="          0.0000"
Co    -0.03565219   -0.10635590    3.47535185       1
Cr    -3.53080147   -0.09316970   -0.02028893       2
Co     0.03574658   -0.04154517   -3.58874361       3
Co     3.59623799   -0.02264998   -0.01653619       4
Cr     0.04557164   -3.68483724   -0.04339913       5
Ni     0.04822267    3.48210071   -0.02245408       6
Ni     0.02207709   -1.81756673    1.70851140       7
Ni     0.03695037    1.70056856    1.73779229       8
Ni    -1.72726756   -1.83176748   -0.00677885       9
Cr    -1.73304152    1.67512154   -0.01535700      10
Ni     1.82486024   -0.03179475    1.74914516      11
Ni    -1.72721882   -0.10053635   -1.81537814      12
Ni     1.81496351   -0.05440411   -1.78461218      13
Co     1.81592835   -1.82711633   -0.00454262      14
Co     1.83298517    1.71355520   -0.02906926      15
Ni     0.04838613   -1.85634181   -1.79604496      16
Cr     0.00958025    1.72499722   -1.78579805      17
Cr     0.00000000    0.00000000    0.00000000      18
          18
Lattice="  24.8920   0.0000   0.0000   0.0000  24.8920   0.0000   0.0000   0.0000  24.8920 " ConfE="      -5937.6251" DelE="          0.6150"
Co    -0.05011301   -0.09995078    3.43107233       1
Cr    -3.53549367   -0.11982649   -0.01188389       2
Co     0.02387610   -0.04835725   -3.57748864       3
Co     3.58857627   -0.02754611   -0.00874166       4
Cr     0.06616735   -3.77471191   -0.07906083       5
Ni     0.04810096    3.54101935   -0.01651093       6
Ni     0.06203491   -1.95695833    1.71030303       7
Ni     0.07786000    1.86603521    1.80521225       8
Ni    -1.72791763   -1.95954560   -0.03992380       9
Cr    -1.76111994    1.81818186   -0.05890987      10
Ni     1.74087386   -0.04449045    1.71998478      11
Ni    -1.68988479   -0.10655346   -1.72235825      12
Ni     1.76981099   -0.08210103   -1.74821097      13
Co     1.80178046   -1.85484879    0.00321344      14
Co     1.74376892    1.68050715   -0.02727255      15
Ni     0.05002727   -1.87265537   -1.76925757      16
Cr     0.03886567    1.66158423   -1.66829480      17
Cr    -0.72344432    0.02785584    0.73716343      18
          18
Lattice="  24.8920   0.0000   0.0000   0.0000  24.8920   0.0000   0.0000   0.0000  24.8920 " ConfE="      -5938.3292" DelE="         -0.0891"
Co     0.00822199   -0.08898949    3.52164822       1
Cr    -3.58418279   -0.10403305   -0.05377151       2
Co     0.03987365   -0.04537705   -3.60609180       3
Co     3.61950018   -0.02557372   -0.02149500       4
Cr     0.05149896   -3.69200245   -0.04805136       5
Ni     0.05717681    3.51290705   -0.02948016       6
Ni     0.04627542   -1.81583717    1.69757346       7
Ni     0.05803543    1.69187004    1.69586645       8
Ni    -1.70700351   -1.85139243   -0.02730026       9
Cr    -1.69249089    1.68316876   -0.04709391      10
Ni     1.79853304   -0.03823097    1.71975940      11
Ni    -1.67359595   -0.09559220   -1.74505582      12
Ni     1.80285998   -0.06848321   -1.77522100      13
Co     1.82081691   -1.83593820   -0.00276378      14
Co     1.80888545    1.69063856   -0.05560697      15
Ni     0.06772271   -1.85785747   -1.79016342      16
Cr     0.04035544    1.69464288   -1.74327822      17
Cr    -1.68328182   -0.06280590    1.69718258      18
