          18
Lattice="  24.8920   0.0000   0.0000   0.0000  24.8920   0.0000   0.0000   0.0000  24.8920 " ConfE="      -5926.2194" DelE="          0.0000"
Cr    -0.00367376    0.02142396   -3.43414569       1
Ni     0.04821384    3.43580458    0.03831830       2
Cr    -0.03937117   -0.04312191    3.64955050       3
Cr    -0.00660379   -3.59821679    0.05791111       4
Cr    -3.48768827   -0.04598045    0.02570684       5
Co     3.59761952   -0.08686874    0.06487538       6
Cr    -1.72844779    0.02550730   -1.72000794       7
Co     1.73964260   -0.01595291   -1.73942570       8
Co    -1.73385642    1.71773064    0.01151302       9
Cr     1.80877864    1.63856360    0.02584227      10
Co    -0.01242617   -1.86196360   -1.73613128      11
Co     0.04564931    1.69939214    1.86419408      12
Cr    -0.01989911   -1.80984062    1.80100161      13
Co    -1.75748148   -1.81527624    0.03786037      14
Cr     1.73391791   -1.69362218   -0.00677524      15
Ni    -1.76034425   -0.01677478    1.79562819      16
Ni     1.81425505   -0.05972327    1.89584956      17
Co     0.00000000    0.00000000    0.00000000      18
          18
Lattice="  24.8920   0.0000   0.0000   0.0000  24.8920   0.0000   0.0000   0.0000  24.8920 " ConfE="      -5925.6429" DelE="          0.5765"
Cr    -0.01211452    0.01253734   -3.47128800       1
Ni     0.04333577    3.45027838    0.03578568       2
Cr    -0.05504667   -0.02540805    3.65943724       3
Cr     0.00863221   -3.59348513    0.03885519       4
Cr    -3.54656584   -0.05902689    0.05332630       5
Co     3.65160070   -0.11123957    0.09646433       6
Cr    -1.87277805   -0.02331355   -1.72736227       7
Co     1.95625554   -0.11587931   -1.81078271       8
Co    -1.84872282    1.75922901    0.07835776       9
Cr     1.88969622    1.62512623    0.05807644      10
Co    -0.01526369   -1.74000323   -1.71944587      11
Co     0.05627337    1.66249070    1.75887770      12
Cr    -0.02887197   -1.77014131    1.75839786      13
Co    -1.73554568   -1.78025085    0.01994304      14
Cr     1.59377778   -1.53634481   -0.01371095      15
Ni    -1.73098973   -0.01534071    1.74138031      16
Ni     1.81124042   -0.05227268    1.90124844      17
Co     0.03582300    0.99054788   -1.07373960      18
          18
Lattice="  24.8920   0.0000   0.0000   0.0000  24.8920   0.0000   0.0000   0.0000  24.8920 " ConfE="      -5926.0906" DelE="          0.1288"
Cr    -0.02120640   -0.03619556   -3.50644257       1
Ni     0.03963014    3.49527104    0.06225857       2
Cr    -0.05785823   -0.03237602    3.68209750       3
Cr     0.01740782   -3.62109112    0.06269306       4
Cr    -3.50329489   -0.05360810    0.03594986       5
Co     3.59904730   -0.10464045    0.07742713       6
Cr    -1.72089289   -0.01405043   -1.68799222       7
Co     1.75974619   -0.06302155   -1.73539941       8
Co    -1.71176973    1.68998718    0.02900190       9
Cr     1.74658996    1.59084337    0.03763829      10
Co    -0.01441798   -1.82948407   -1.72905511      11
Co     0.06114092    1.68083349    1.81185053      12
Cr    -0.02049525   -1.79925620    1.79511713      13
Co    -1.71167919   -1.79289357    0.03733180      14
Cr     1.59382354   -1.58200687    0.00663438      15
Ni    -1.71537343   -0.02388946    1.76021078      16
Ni     1.80123645   -0.06100837    1.92062086      17
Co     0.01741672    1.62901791   -1.69431556      18
