          18
Lattice="  24.8920   0.0000   0.0000   0.0000  24.8920   0.0000   0.0000   0.0000  24.8920 " ConfE="      -5947.8834" DelE="          0.0000"
Co     3.58253301    0.02698268   -0.08077732       1
Ni     0.00427525   -3.51295232   -0.05918139       2
Cr     0.00851611    0.01324126    3.47824344       3
Cr    -0.03958698    3.51183379   -0.00852148       4
Co    -0.03881989   -0.01478547   -3.66559473       5
Co    -3.55775475   -0.03368750   -0.07582787       6
Ni     1.78633482   -1.71712490   -0.05880934       7
Ni     1.76364870    1.70482148   -0.03238502       8
Cr     0.06262180   -1.60155552    1.71889832       9
Ni     0.02113020   -1.76363883   -1.86343058      10
Cr    -0.03593739    1.67789046    1.72639781      11
Ni    -1.77877361   -0.02892178   -1.84946225      12
Co     1.74814668    0.01884612   -1.90614653      13
Cr    -1.79641867   -1.79528000   -0.05336854      14
Co    -1.82661019   -0.03413519    1.71900362      15
Cr    -0.00666746    1.74127205   -1.81588996      16
Co    -1.79212878    1.76015074   -0.05100445      17
Co     0.00000000    0.00000000    0.00000000      18
          18
Lattice="  24.8920   0.0000   0.0000   0.0000  24.8920   0.0000   0.0000   0.0000  24.8920 " ConfE="      -5947.2216" DelE="          0.6618"
Co     3.50430957    0.02221309   -0.05823759       1
Ni     0.00003055   -3.58551130   -0.10569111       2
Cr     0.02181273    0.01316020    3.46898323       3
Cr    -0.04589797    3.62693781   -0.05483063       4
Co    -0.03361416   -0.01241293   -3.66604735       5
Co    -3.54040727   -0.03361018   -0.06674365       6
Ni     1.78633801   -1.82409011   -0.10296483       7
Ni     1.77523101    1.84299150   -0.09376247       8
Cr    -0.05970458   -1.89699281    1.73084967       9
Ni     0.02493444   -1.75451603   -1.83453037      10
Cr    -0.13391362    1.91297841    1.69810739      11
Ni    -1.74172746   -0.02754267   -1.81972005      12
Co     1.72072292    0.03082971   -1.86268707      13
Cr    -1.73474826   -1.76798235   -0.04987526      14
Co    -1.71255358   -0.04657032    1.67737614      15
Cr     0.00092668    1.70868330   -1.75508253      16
Co    -1.74127435    1.74789146   -0.05639543      17
Co     0.83084653    0.01595118    1.02661983      18
          18
Lattice="  24.8920   0.0000   0.0000   0.0000  24.8920   0.0000   0.0000   0.0000  24.8920 " ConfE="      -5947.8405" DelE="          0.0429"
Co     3.58283396    0.02953782   -0.08463642       1
Ni    -0.00107431   -3.53873101   -0.06564660       2
Cr    -0.01295009    0.00727182    3.53019183       3
Cr    -0.03868272    3.55809299   -0.01822069       4
Co    -0.04134329   -0.01604757   -3.67484837       5
Co    -3.56097800   -0.03436664   -0.07329456       6
Ni     1.74850206   -1.70581753   -0.07641545       7
Ni     1.71517914    1.69948943   -0.07167040       8
Cr     0.03288890   -1.59702215    1.68033087       9
Ni     0.01110787   -1.74882328   -1.84240985      10
Cr    -0.07454732    1.66075236    1.68111270      11
Ni    -1.76312238   -0.03519829   -1.83552556      12
Co     1.72936983    0.02411240   -1.89798295      13
Cr    -1.77133740   -1.78664657   -0.04940812      14
Co    -1.74592134   -0.05110593    1.66595195      15
Cr    -0.02171324    1.70632251   -1.78392281      16
Co    -1.74039122    1.73120478   -0.06038477      17
Co     1.74392368    0.02437737    1.72927828      18
