          18
Lattice="  24.8920   0.0000   0.0000   0.0000  24.8920   0.0000   0.0000   0.0000  24.8920 " ConfE="      -5941.0396" DelE="          0.0000"
Co    -0.03667355   -3.54120812   -0.07046787       1
Co     3.53001241    0.00170330   -0.09021725       2
Cr    -0.00556914    0.06591740   -3.65912811       3
Cr    -3.49606239    0.01142366    0.01491880       4
Co     0.02161733    3.57569929   -0.05343610       5
Cr    -0.05575359    0.07525651    3.52339611       6
Ni     1.74623870   -1.78750097    0.00947437       7
Cr     1.57543130   -0.17224793   -1.84369889       8
Cr    -0.02868302   -1.80133322    1.79305023       9
Co     1.76148492    0.02729313    1.75954980      10
Cr    -1.73740928   -1.75753033   -0.03476357      11
Cr     1.79247849    1.76691098   -0.07088406      12
Cr    -1.60045024   -0.05055051   -1.85102714      13
Co     0.03145176    1.84801160   -1.83267354      14
Cr    -1.74547829    1.81283221   -0.07488457      15
Co    -1.77675306    0.05433093    1.75148687      16
Cr    -0.03173779    1.83096621    1.74008533      17
Ni     0.00000000    0.00000000    0.00000000      18
          18
Lattice="  24.8920   0.0000   0.0000   0.0000  24.8920   0.0000   0.0000   0.0000  24.8920 " ConfE="      -5940.2598" DelE="          0.7798"
Co    -0.01344817   -3.50664539   -0.07904652       1
Co     3.60291747    0.05822981   -0.05383377       2
Cr    -0.03013874   -0.02860916   -3.54402579       3
Cr    -3.55373975    0.05670957    0.00065838       4
Co     0.00004162    3.59728811   -0.07432375       5
Cr    -0.05715248    0.06267827    3.55371451       6
Ni     1.91730841   -1.76996312    0.05275185       7
Cr     1.87978067    0.03915759   -1.85420934       8
Cr    -0.02216370   -1.68210266    1.68302692       9
Co     1.72779537    0.04760189    1.69824475      10
Cr    -1.91391448   -1.77193752    0.08451644      11
Cr     1.61370672    1.69985109   -0.09539884      12
Cr    -1.89812085    0.09785628   -1.93104336      13
Co    -0.00183007    1.80469503   -1.84705444      14
Cr    -1.67704922    1.74144441   -0.11983634      15
Co    -1.75759046    0.05439503    1.69965975      16
Cr    -0.04925700    1.70044319    1.67743396      17
Ni    -0.02903165   -1.02224421   -1.03410646      18
          18
Lattice="  24.8920   0.0000   0.0000   0.0000  24.8920   0.0000   0.0000   0.0000  24.8920 " ConfE="      -5940.8587" DelE="          0.1808"
Co    -0.05259507   -3.57006379   -0.07377345       1
Co     3.55829911    0.03510120   -0.06021616       2
Cr     0.01321462    0.05872995   -3.72340350       3
Cr    -3.55532785    0.01777704    0.03820633       4
Co    -0.00015882    3.60684310   -0.06265605       5
Cr    -0.04549248    0.07521877    3.58846270       6
Ni     1.73377738   -1.74214382   -0.02703237       7
Cr     1.65588679    0.05213571   -1.78694533       8
Cr    -0.02073382   -1.75675008    1.72215077       9
Co     1.69490794    0.04025751    1.70440295      10
Cr    -1.66914521   -1.51253143   -0.02751822      11
Cr     1.61283695    1.73119714   -0.04664637      12
Cr    -1.62123194    0.07787153   -1.86718843      13
Co     0.01711211    1.83799089   -1.85972936      14
Cr    -1.64926569    1.70150081   -0.07387698      15
Co    -1.72673263    0.06547837    1.74869780      16
Cr    -0.04029670    1.78310554    1.74404217      17
Ni     0.00340599   -1.76631242   -1.83332277      18
