          18
Lattice="  24.8920   0.0000   0.0000   0.0000  24.8920   0.0000   0.0000   0.0000  24.8920 " ConfE="      -5940.4060" DelE="          0.0000"
Cr    -3.49421563   -0.03984888   -0.02944543       1
Ni    -0.02820297   -0.01633493    3.45402251       2
Cr     3.60036759    0.00485840   -0.10571269       3
Ni     0.02613164    0.00276875   -3.62264686       4
Cr     0.01667409   -3.53762959   -0.08626055       5
Co    -0.00100955    3.53519749   -0.03108830       6
Co    -1.74354509   -1.75150405    0.04179705       7
Co    -1.75555692    1.74420683   -0.00392319       8
Cr    -0.03898951   -1.73361127    1.70581797       9
Cr    -0.02540319    1.74335472    1.75832147      10
Ni    -1.74912449   -0.01473027   -1.83948718      11
Co     1.82331274    0.03247343    1.70029757      12
Co     1.81246223    0.02897212   -1.80524072      13
Co     0.00910514   -1.76592449   -1.79402924      14
Cr     0.01209635    1.71311371   -1.79414055      15
Ni     1.79301776   -1.76541928   -0.05764323      16
Cr     1.71948736    1.79250840   -0.02376158      17
Ni     0.00000000    0.00000000    0.00000000      18
          18
Lattice="  24.8920   0.0000   0.0000   0.0000  24.8920   0.0000   0.0000   0.0000  24.8920 " ConfE="      -5939.6584" DelE="          0.7477"
Cr    -3.48455275   -0.05510485    0.00081662       1
Ni    -0.00960985   -0.01653493    3.46328340       2
Cr     3.60744277    0.00037973   -0.09550397       3
Ni     0.00723911    0.00445657   -3.61903583       4
Cr     0.04628085   -3.62742103   -0.11843406       5
Co     0.01083788    3.60179805   -0.04143120       6
Co    -1.75978075   -1.89577594   -0.03543664       7
Co    -1.79272585    1.90178987   -0.10201162       8
Cr     0.02998428   -1.90569812    1.69249471       9
Cr     0.06929761    1.96574693    1.78497188      10
Ni    -1.75019879   -0.01611596   -1.79663271      11
Co     1.72986460    0.04005389    1.64917260      12
Co     1.75815528    0.03608229   -1.76366671      13
Co    -0.01229483   -1.74976337   -1.75279754      14
Cr    -0.00480421    1.66553974   -1.70237875      15
Ni     1.74419258   -1.75136808   -0.05104142      16
Cr     1.64123817    1.70087328   -0.03109368      17
Ni    -1.07584822    0.05604012    1.17228064      18
          18
Lattice="  24.8920   0.0000   0.0000   0.0000  24.8920   0.0000   0.0000   0.0000  24.8920 " ConfE="      -5940.1739" DelE="          0.2321"
Cr    -3.55390788   -0.05084166   -0.06903224       1
Ni     0.00449389   -0.00676988    3.50431910       2
Cr     3.63305384   -0.00466352   -0.10859315       3
Ni     0.01835175    0.00203813   -3.62948079       4
Cr     0.03814675   -3.58166869   -0.10527906       5
Co     0.01170350    3.57035569   -0.03761412       6
Co    -1.70608279   -1.78588620   -0.00760408       7
Co    -1.72551163    1.74760866   -0.04190152       8
Cr     0.00029007   -1.71623295    1.64398419       9
Cr     0.00273738    1.71666116    1.66239397      10
Ni    -1.74032245   -0.02310568   -1.79877107      11
Co     1.75111197    0.04710103    1.65096330      12
Co     1.77979708    0.03672303   -1.78234287      13
Co     0.01057784   -1.74630550   -1.76943113      14
Cr     0.01730914    1.65036311   -1.71251074      15
Ni     1.77224638   -1.74094891   -0.06457019      16
Cr     1.70803565    1.72238807   -0.05433026      17
Ni    -1.75493278   -0.02300663    1.72059220      18
