          18
Lattice="  24.8920   0.0000   0.0000   0.0000  24.8920   0.0000   0.0000   0.0000  24.8920 " ConfE="      -5934.6899" DelE="          0.0000"
Cr    -0.01449214   -3.22053678   -0.14504873       1
Cr    -0.01829588    0.08263486    3.17633602       2
Co    -0.01246480    3.83383578   -0.19824500       3
Cr    -0.04763605    0.19848208   -3.78565277       4
Co     3.59721606    0.22989714   -0.16553512       5
Co    -3.56692353    0.22476920   -0.18301583       6
Co     1.79213192   -1.57365459   -0.17337245       7
Co    -1.77472358   -1.58528135   -0.18193189       8
Ni     1.81888730    0.14986100    1.60896351       9
Cr    -1.78468297    0.14490410    1.55929695      10
Ni     0.01734985   -1.56610874   -1.99200474      11
Co    -0.00302715    2.02691087    1.57600876      12
Cr    -0.01404410    1.97140821   -1.87488881      13
Cr     1.78452515    0.21074469   -1.89026367      14
Ni    -1.75541355    0.21211906   -1.93284221      15
Cr     1.72523939    1.97244555   -0.14580010      16
Cr    -1.76253199    2.00153593   -0.17610118      17
Cr     0.00000000    0.00000000    0.00000000      18
          18
Lattice="  24.8920   0.0000   0.0000   0.0000  24.8920   0.0000   0.0000   0.0000  24.8920 " ConfE="      -5934.1736" DelE="          0.5163"
Cr    -0.02215022   -3.30521384   -0.19506090       1
Cr    -0.00452726    0.18039352    3.34695678       2
Co    -0.00832888    3.80880474   -0.18347300       3
Cr    -0.04717641    0.15592244   -3.77541828       4
Co     3.63599634    0.27733202   -0.18132639       5
Co    -3.62294458    0.24753396   -0.21000244       6
Co     1.87447655   -1.51923113   -0.21572281       7
Co    -1.84188392   -1.55521086   -0.21749596       8
Ni     1.92533730    0.22621979    1.65438489       9
Cr    -1.91284526    0.23246727    1.55643000      10
Ni     0.02426055   -1.53325604   -1.90368920      11
Co    -0.01940706    1.92620973    1.61046637      12
Cr    -0.04467805    1.97295810   -1.96070967      13
Cr     1.77408336    0.18501754   -1.90505583      14
Ni    -1.74026436    0.21398522   -1.91644877      15
Cr     1.44372055    1.72617469   -0.17302517      16
Cr    -1.66555836    1.93115850   -0.18369350      17
Cr     0.00972806   -0.91657500    0.98511681      18
          18
Lattice="  24.8920   0.0000   0.0000   0.0000  24.8920   0.0000   0.0000   0.0000  24.8920 " ConfE="      -5934.6731" DelE="          0.0167"
Cr    -0.04553368   -3.34196826   -0.23711517       1
Cr    -0.00860391    0.21009471    3.35627015       2
Co    -0.01046703    3.84736343   -0.20217875       3
Cr    -0.04851195    0.18953542   -3.78505656       4
Co     3.60810583    0.23992673   -0.16801495       5
Co    -3.58303673    0.23833966   -0.19011359       6
Co     1.75624627   -1.52158703   -0.20726333       7
Co    -1.75052577   -1.53099110   -0.18894098       8
Ni     1.77227406    0.18426009    1.58628632       9
Cr    -1.70348219    0.18906891    1.48669097      10
Ni     0.00115059   -1.54382864   -1.95658531      11
Co     0.00168168    1.99155198    1.56359751      12
Cr    -0.01174418    1.94171116   -1.87873892      13
Cr     1.75672408    0.20229800   -1.86862150      14
Ni    -1.75759967    0.22261174   -1.94759936      15
Cr     1.64077680    1.92667427   -0.15669649      16
Cr    -1.70135165    1.97461049   -0.18469532      17
Cr     0.01345998   -1.53121807    1.50596841      18
