          18
Lattice="  24.8920   0.0000   0.0000   0.0000  24.8920   0.0000   0.0000   0.0000  24.8920 " ConfE="      -5948.9392" DelE="          0.0000"
Ni     3.51824920    0.08600624   -0.09603276       1
Ni    -0.01026933    0.13811576   -3.65173771       2
Ni    -3.54862106    0.07391777   -0.06874149       3
Ni     0.01275696    0.09268821    3.51172345       4
Cr     0.10446241   -3.42182683   -0.05075417       5
Cr    -0.07062609    3.68213029   -0.05311068       6
Co     1.78496420   -1.63518102   -0.10441610       7
Ni     1.76363065    1.82505435   -0.07570151       8
Ni     0.03511187   -1.63127195   -1.85022630       9
Ni     0.04979948    1.81958442   -1.81328521      10
Cr     1.79330550    0.08216700    1.77360430      11
Ni    -1.77690953    0.10110942   -1.85333452      12
Co    -1.76044749    0.07871254    1.70158813      13
Co     0.05925924   -1.67321136    1.69551167      14
Ni    -0.00076404    1.86391553    1.71999304      15
Cr    -1.70974217   -1.68976629   -0.02875806      16
Ni    -1.76353243    1.84248083   -0.05771332      17
Cr     0.00000000    0.00000000    0.00000000      18
          18
Lattice="  24.8920   0.0000   0.0000   0.0000  24.8920   0.0000   0.0000   0.0000  24.8920 " ConfE="      -5947.4209" DelE="          1.5184"
Ni     3.45357775    0.09027574   -0.13475915       1
Ni     0.07187679    0.14621573   -3.56115831       2
Ni    -3.52745920    0.07283507   -0.08197491       3
Ni     0.03061122    0.09670775    3.49832615       4
Cr     0.04056093   -3.53568442   -0.04477438       5
Cr    -0.14615645    3.76549212   -0.01132955       6
Co     1.84363230   -1.80228365   -0.10355067       7
Ni     1.79038289    2.00160697   -0.07273656       8
Ni     0.00647351   -1.81138663   -1.90702995       9
Ni     0.01748225    2.00928394   -1.84558034      10
Cr     1.75513216    0.08974588    1.66097976      11
Ni    -1.68217593    0.09207940   -1.82019410      12
Co    -1.69683677    0.05824381    1.62304636      13
Co     0.10337344   -1.60619279    1.56915792      14
Ni     0.01836113    1.85551507    1.67126227      15
Cr    -1.58947338   -1.62333529   -0.01482925      16
Ni    -1.71695529    1.83542218   -0.07582382      17
Cr     0.82105966    0.03303686   -0.86236813      18
          18
Lattice="  24.8920   0.0000   0.0000   0.0000  24.8920   0.0000   0.0000   0.0000  24.8920 " ConfE="      -5948.8836" DelE="          0.0556"
Ni     3.56247785    0.09318138   -0.04974108       1
Ni    -0.00979419    0.14458571   -3.66770738       2
Ni    -3.56272123    0.07725797   -0.06838854       3
Ni     0.01398016    0.09063479    3.52731452       4
Cr     0.08597796   -3.45310051   -0.04597997       5
Cr    -0.07867060    3.68378000   -0.03697388       6
Co     1.77551737   -1.60851656   -0.08277258       7
Ni     1.73983411    1.82052674   -0.03433377       8
Ni     0.02152470   -1.61398808   -1.80877228       9
Ni     0.02765884    1.84218134   -1.79963947      10
Cr     1.76750022    0.06472239    1.75731395      11
Ni    -1.74644261    0.10513193   -1.83326805      12
Co    -1.73329313    0.05751624    1.65823801      13
Co     0.06594640   -1.62654754    1.63257968      14
Ni    -0.00261634    1.83839048    1.71431925      15
Cr    -1.65023292   -1.63384336    0.01531636      16
Ni    -1.75581998    1.83224383   -0.05001223      17
Cr     1.85188454    0.13747463   -1.88618657      18
