          18
Lattice="  24.8920   0.0000   0.0000   0.0000  24.8920   0.0000   0.0000   0.0000  24.8920 " ConfE="      -5949.8794" DelE="          0.0000"
Cr     0.00225240   -3.37056028    0.07942891       1
Ni     0.00807074    0.00620344    3.54740739       2
Cr     0.01600074    3.55739344   -0.03114153       3
Cr     0.02904150    0.05841629   -3.56515946       4
Co    -3.53542865    0.02742035    0.01252794       5
Cr     3.50211318   -0.14694861    0.03434998       6
Cr    -1.75432560   -1.76267059   -0.01701869       7
Co     1.70083462   -1.78089018    0.02270429       8
Ni    -1.69776865   -0.04190350    1.74919914       9
Ni     1.74968846   -0.04520076    1.78826179      10
Ni     0.01150200   -1.72773085   -1.83024584      11
Cr    -0.01886475    1.82227377    1.77043007      12
Co     0.02880816    1.80178069   -1.77028094      13
Ni    -1.77432045    0.01725165   -1.79773841      14
Ni     1.78449698    0.01226623   -1.82549833      15
Cr    -1.74047382    1.80008203   -0.02011181      16
Ni     1.78389796    1.74042681    0.00746442      17
Co     0.00000000    0.00000000    0.00000000      18
          18
Lattice="  24.8920   0.0000   0.0000   0.0000  24.8920   0.0000   0.0000   0.0000  24.8920 " ConfE="      -5949.3213" DelE="          0.5581"
Cr    -0.00030190   -3.42662046    0.06927689       1
Ni    -0.00449268   -0.01198872    3.51452799       2
Cr     0.03360560    3.56995538   -0.00551854       3
Cr     0.03615877    0.03616527   -3.56141429       4
Co    -3.60700148    0.05906105    0.01133754       5
Cr     3.60182412   -0.12545394    0.00902004       6
Cr    -1.97058992   -1.78425595   -0.08101135       7
Co     1.96789117   -1.80343570   -0.05351408       8
Ni    -1.87703959    0.04211088    1.80578740       9
Ni     1.84147641   -0.04055975    1.77958381      10
Ni     0.01127008   -1.71508107   -1.73083835      11
Cr    -0.03222329    1.69196991    1.69697578      12
Co     0.02147393    1.76832260   -1.72553467      13
Ni    -1.76068175    0.01544969   -1.74965153      14
Ni     1.78240651   -0.00209746   -1.80029403      15
Cr    -1.71220920    1.76812560   -0.01499171      16
Ni     1.75911972    1.68564802    0.01089919      17
Co    -0.09904479   -1.09425529    0.82558988      18
          18
Lattice="  24.8920   0.0000   0.0000   0.0000  24.8920   0.0000   0.0000   0.0000  24.8920 " ConfE="      -5949.7963" DelE="          0.0831"
Cr     0.00124709   -3.44611382    0.03941778       1
Ni     0.00301578    0.02364120    3.56151898       2
Cr     0.03511474    3.60138006   -0.02451756       3
Cr     0.02773026    0.05357144   -3.58260142       4
Co    -3.55653156    0.04034427    0.00958042       5
Cr     3.53906367   -0.14617272    0.02789152       6
Cr    -1.75215611   -1.76504721   -0.02278362       7
Co     1.75307068   -1.74445512   -0.01854084       8
Ni    -1.69195899    0.01759509    1.68966496       9
Ni     1.74207993   -0.02273195    1.76338266      10
Ni     0.01045630   -1.70948062   -1.78068553      11
Cr    -0.02367241    1.81217680    1.74689580      12
Co     0.01086009    1.78457324   -1.72339755      13
Ni    -1.75201677    0.01697435   -1.75602178      14
Ni     1.77048578    0.01661771   -1.81746255      15
Cr    -1.70472801    1.82729934   -0.03456424      16
Ni     1.74891543    1.71029504    0.00758154      17
Co    -0.04168460   -1.78536452    1.65400485      18
