          18
Lattice="  24.8920   0.0000   0.0000   0.0000  24.8920   0.0000   0.0000   0.0000  24.8920 " ConfE="      -5932.6427" DelE="          0.0000"
Co     0.00926173   -0.01077105   -3.52396032       1
Cr    -0.02652470    3.56676701   -0.04217313       2
Co     0.01702541    0.00614682    3.55306038       3
Ni     0.01765576   -3.56253425    0.04221068       4
Co    -3.51602364   -0.01117723   -0.04044973       5
Cr     3.54869566   -0.04508504    0.09528391       6
Cr    -1.70156295    0.05423119   -1.80825079       7
Ni     1.74177180    0.01826043   -1.75160019       8
Cr    -1.70590180    1.76790535   -0.08364557       9
Ni     1.76798308    1.77679017    0.00550892      10
Cr     0.03757752   -1.82227544   -1.76743672      11
Co    -0.02158715    1.82090165    1.79969278      12
Cr    -0.00851980   -1.77421121    1.81363396      13
Co    -1.77464846   -1.77093451    0.00484242      14
Co     1.81462256   -1.78343770    0.04333935      15
Ni    -1.76737177   -0.00160895    1.77635521      16
Cr     1.72953574    0.03279162    1.83589226      17
Cr     0.00000000    0.00000000    0.00000000      18
          18
Lattice="  24.8920   0.0000   0.0000   0.0000  24.8920   0.0000   0.0000   0.0000  24.8920 " ConfE="      -5931.8490" DelE="          0.7937"
Co     0.01150851   -0.02708066   -3.45587107       1
Cr    -0.03585321    3.56046956   -0.04011306       2
Co     0.00890087    0.02481051    3.54462793       3
Ni     0.02381816   -3.59282604    0.04033255       4
Co    -3.55081248   -0.02258284   -0.03430633       5
Cr     3.63912189   -0.06929548    0.10806912       6
Cr    -1.88437568   -0.23403967   -1.84790053       7
Ni     1.89448441   -0.06594684   -1.73450277       8
Cr    -1.94178110    1.84246728   -0.01333283       9
Ni     1.89086203    1.79821636    0.00183193      10
Cr     0.07305973   -1.81777481   -1.70771372      11
Co    -0.01286790    1.78166058    1.68680493      12
Cr     0.01820468   -1.68951899    1.69103538      13
Co    -1.74206710   -1.74269248    0.00777648      14
Co     1.80140393   -1.76964361    0.03672696      15
Ni    -1.73769490    0.01364538    1.71278383      16
Cr     1.65396332    0.04579753    1.68861475      17
Cr    -0.08834058    0.79580224   -0.81487999      18
          18
Lattice="  24.8920   0.0000   0.0000   0.0000  24.8920   0.0000   0.0000   0.0000  24.8920 " ConfE="      -5932.5620" DelE="          0.0807"
Co     0.00927393   -0.05338612   -3.56977800       1
Cr    -0.02816416    3.58857048   -0.01053505       2
Co     0.01815888    0.00626843    3.57534738       3
Ni     0.02393760   -3.58359915    0.04378556       4
Co    -3.55072001   -0.02205480   -0.02151588       5
Cr     3.58459241   -0.04829493    0.10889407       6
Cr    -1.74120302   -0.08585016   -1.75146336       7
Ni     1.77933636   -0.03656427   -1.70923143       8
Cr    -1.72396933    1.70835816   -0.04720776       9
Ni     1.78456467    1.74210220    0.03231097      10
Cr     0.04858489   -1.74805614   -1.68661694      11
Co    -0.01625907    1.76411056    1.73017888      12
Cr     0.03515956   -1.70768268    1.72634647      13
Co    -1.74132468   -1.74998712    0.02424138      14
Co     1.80437969   -1.77353122    0.06169392      15
Ni    -1.73977839   -0.01547327    1.75384372      16
Cr     1.70528810    0.01804343    1.80803792      17
Cr     0.01245152    1.64026019   -1.73695228      18
