          18
Lattice="  24.8920   0.0000   0.0000   0.0000  24.8920   0.0000   0.0000   0.0000  24.8920 " ConfE="      -5934.2729" DelE="          0.0000"
Cr    -0.05771981    0.05668587   -3.47880459       1
Cr    -0.09761109    3.36824172   -0.04191149       2
Ni    -0.07412038   -0.06022385    3.62627390       3
Ni    -0.05099807   -3.57439025    0.04708600       4
Ni    -3.60510879   -0.03501782    0.03639786       5
Cr     3.46504501   -0.03084486   -0.01141473       6
Ni    -1.78489036   -0.00526840   -1.73475282       7
Ni     1.68682584   -0.02304394   -1.77866773       8
Co    -1.79271896    1.76446901   -0.00080196       9
Cr     1.59250668    1.65358024   -0.00771040      10
Co    -0.00708342   -1.86083853   -1.77185228      11
Ni    -0.07717996    1.70586464    1.84983556      12
Co    -0.03299851   -1.84957075    1.84766133      13
Ni    -1.80068435   -1.79262360    0.04051242      14
Co     1.76553902   -1.85674945   -0.01337242      15
Ni    -1.84193093   -0.03993174    1.82080520      16
Ni     1.71371733   -0.07355340    1.82041996      17
Co     0.00000000    0.00000000    0.00000000      18
          18
Lattice="  24.8920   0.0000   0.0000   0.0000  24.8920   0.0000   0.0000   0.0000  24.8920 " ConfE="      -5933.8209" DelE="          0.4521"
Cr    -0.05566969    0.04256519   -3.39411274       1
Cr    -0.09465995    3.30588749   -0.08461573       2
Ni    -0.07216515   -0.04644222    3.59736265       3
Ni    -0.05571754   -3.57700536    0.03726199       4
Ni    -3.65540153   -0.04469281    0.04098396       5
Cr     3.52647465   -0.03010851   -0.01584705       6
Ni    -1.94742325   -0.05645944   -1.76013199       7
Ni     1.84892112   -0.09582451   -1.80957266       8
Co    -1.93453338    1.78998857    0.01234541       9
Cr     1.76113499    1.72699668   -0.03820549      10
Co    -0.00754014   -1.80617423   -1.74667715      11
Ni    -0.07263541    1.68796104    1.77051599      12
Co    -0.02985260   -1.84262219    1.83262109      13
Ni    -1.78862566   -1.76918001    0.03210294      14
Co     1.75487150   -1.83378456   -0.01730766      15
Ni    -1.83157304   -0.02906807    1.77407439      16
Ni     1.69014863   -0.05317548    1.72992447      17
Co    -0.01286662    0.52506157   -0.53353974      18
          18
Lattice="  24.8920   0.0000   0.0000   0.0000  24.8920   0.0000   0.0000   0.0000  24.8920 " ConfE="      -5934.8120" DelE="         -0.5391"
Cr    -0.05731562    0.01130729   -3.51660195       1
Cr    -0.06998812    3.46965410   -0.00127015       2
Ni    -0.07390539   -0.05585194    3.62419259       3
Ni    -0.05478145   -3.60047260    0.05134293       4
Ni    -3.62577274   -0.05368073    0.04597219       5
Cr     3.50665410   -0.03376346   -0.01071816       6
Ni    -1.78204065   -0.05710379   -1.69462275       7
Ni     1.66888485   -0.05897017   -1.71701315       8
Co    -1.82621187    1.75340000    0.02254340       9
Cr     1.62672502    1.66779300    0.00556103      10
Co    -0.00578485   -1.85810783   -1.75575952      11
Ni    -0.07459986    1.67940054    1.78244888      12
Co    -0.02727555   -1.86611766    1.85812300      13
Ni    -1.77437420   -1.79123438    0.05873174      14
Co     1.75657297   -1.86666555   -0.00003036      15
Ni    -1.83196101   -0.04692494    1.81178068      16
Ni     1.68405420   -0.07610935    1.76561762      17
Co    -0.05186357    1.72906422   -1.70462389      18
