          18
Lattice="  24.8920   0.0000   0.0000   0.0000  24.8920   0.0000   0.0000   0.0000  24.8920 " ConfE="      -5949.7143" DelE="          0.0000"
Cr     0.02055083   -0.01477557   -3.41628382       1
Co    -0.02562368    3.47998351    0.00753106       2
Cr    -0.02199480   -0.06082780    3.59915136       3
Cr     0.01371203   -3.58037170   -0.00872924       4
Co    -3.55464733   -0.02379880    0.04478717       5
Co     3.52948090   -0.01061214    0.01872807       6
Co    -1.73617554    0.00051325   -1.72908925       7
Co     1.74477103    0.00065863   -1.75872401       8
Cr    -1.67212660    1.74198603   -0.06129474       9
Cr     1.67809712    1.66697695   -0.02260618      10
Co    -0.00482319   -1.82444276   -1.74218411      11
Cr     0.03207815    1.72900496    1.80395296      12
Ni     0.00060399   -1.81126229    1.79847884      13
Cr    -1.77204373   -1.81835317    0.01232104      14
Ni     1.76590956   -1.79906500    0.02213215      15
Ni    -1.77479669   -0.03560411    1.78326018      16
Co     1.77426063   -0.04021622    1.83148100      17
Co     0.00000000    0.00000000    0.00000000      18
          18
Lattice="  24.8920   0.0000   0.0000   0.0000  24.8920   0.0000   0.0000   0.0000  24.8920 " ConfE="      -5949.3743" DelE="          0.3400"
Cr    -0.00106686    0.02406914   -3.38255161       1
Co    -0.00108316    3.45812188    0.02104790       2
Cr    -0.02333119   -0.04512430    3.58951004       3
Cr     0.02199893   -3.58544757   -0.02667852       4
Co    -3.62987949   -0.06175850    0.05845344       5
Co     3.59761017   -0.04051289    0.03526448       6
Co    -1.89289882   -0.06736660   -1.72364044       7
Co     1.86802139   -0.04641703   -1.78053605       8
Cr    -1.93157615    1.77945824    0.08730328       9
Cr     1.93692576    1.66878683    0.04140490      10
Co    -0.01366315   -1.69300184   -1.68702374      11
Cr     0.08657412    1.68081177    1.68590443      12
Ni     0.00557350   -1.77762262    1.75008850      13
Cr    -1.74406623   -1.78192442   -0.02311074      14
Ni     1.76223105   -1.76258834    0.01973667      15
Ni    -1.74803759   -0.04233854    1.72381455      16
Co     1.76111230   -0.02072010    1.79212062      17
Co    -0.03660669    1.05481206   -0.90719516      18
          18
Lattice="  24.8920   0.0000   0.0000   0.0000  24.8920   0.0000   0.0000   0.0000  24.8920 " ConfE="      -5949.7729" DelE="         -0.0586"
Cr     0.00729789   -0.05770044   -3.48156158       1
Co    -0.01431690    3.54521566    0.03913731       2
Cr    -0.01941953   -0.06492704    3.62678636       3
Cr     0.02074602   -3.60332025   -0.01297667       4
Co    -3.58176643   -0.04007096    0.05813236       5
Co     3.56448910   -0.02192516    0.03042023       6
Co    -1.74316085   -0.04305352   -1.68016739       7
Co     1.76008387   -0.02389379   -1.72751146       8
Cr    -1.70561735    1.70092008   -0.00356449       9
Cr     1.68727702    1.61441895    0.00216320      10
Co    -0.01025672   -1.77487458   -1.70442201      11
Cr     0.04243396    1.70137399    1.73562506      12
Ni     0.00475669   -1.79391361    1.77043483      13
Cr    -1.73437167   -1.79500584   -0.00634414      14
Ni     1.74714044   -1.77423540    0.02690141      15
Ni    -1.73559445   -0.04862205    1.75335587      16
Co     1.74940040   -0.02451940    1.80363378      17
Co    -0.00987080    1.69671853   -1.66949965      18
