          18
Lattice="  24.8920   0.0000   0.0000   0.0000  24.8920   0.0000   0.0000   0.0000  24.8920 " ConfE="      -5927.7974" DelE="          0.0000"
Ni    -0.00578710   -3.42184025   -0.04286504       1
Co    -0.09637481    0.01202005   -3.52286461       2
Cr     0.01941002    3.57487270    0.00441173       3
Ni    -0.00926719    0.05168465    3.60010897       4
Co    -3.55925884    0.05569469    0.01434021       5
Cr     3.45773883   -0.01555625   -0.13313928       6
Co    -1.77850080   -1.70001133   -0.02743384       7
Co     1.78150572   -1.69604894   -0.00567920       8
Cr    -1.72146847   -0.04643448   -1.78475517       9
Co     1.72236621   -0.00524245   -1.79002410      10
Cr    -0.04836228   -1.71215453    1.81303744      11
Co    -0.04053758    1.81598189   -1.78528436      12
Ni    -0.00866704    1.80482873    1.81841754      13
Cr    -1.83114543   -0.01505196    1.81153325      14
Ni     1.77757446    0.03331147    1.80795897      15
Cr    -1.71936201    1.71426808   -0.01777623      16
Cr     1.72723601    1.78971686   -0.03853255      17
Co     0.00000000    0.00000000    0.00000000      18
          18
Lattice="  24.8920   0.0000   0.0000   0.0000  24.8920   0.0000   0.0000   0.0000  24.8920 " ConfE="      -5926.5243" DelE="          1.2731"
Ni    -0.01205936   -3.42540657   -0.03341813       1
Co    -0.07934114    0.04365401   -3.51834952       2
Cr     0.08210706    3.38592726    0.22175578       3
Ni     0.00369868    0.08010769    3.48022512       4
Co    -3.65335452    0.06342134    0.03632961       5
Cr     3.67293150   -0.01370619   -0.11485091       6
Co    -1.93059976   -1.73118517    0.05916944       7
Co     1.88793992   -1.67482515    0.03083274       8
Cr    -1.86106745    0.08618530   -1.72502343       9
Co     1.89146050    0.08267336   -1.76149260      10
Cr    -0.03695683   -1.61866790    1.64747792      11
Co    -0.04895395    1.68944240   -1.66842145      12
Ni    -0.09014687    0.91800089    0.96995591      13
Cr    -2.01487531   -0.14334164    1.86631687      14
Ni     1.94910168    0.01702703    1.79879618      15
Cr    -2.00121367    1.82018903   -0.00963170      16
Cr     1.91892375    1.74751009   -0.07610962      17
Co    -0.05544213   -1.08503642   -1.20670681      18
          18
Lattice="  24.8920   0.0000   0.0000   0.0000  24.8920   0.0000   0.0000   0.0000  24.8920 " ConfE="      -5927.4835" DelE="          0.3139"
Ni    -0.02648617   -3.46410128   -0.00965695       1
Co    -0.08635899    0.06353110   -3.56553069       2
Cr     0.05753430    3.47485965    0.20198018       3
Ni    -0.01354299    0.08890300    3.53944173       4
Co    -3.55741776    0.07249023    0.03148170       5
Cr     3.49554021    0.00351998   -0.10893873       6
Co    -1.80890521   -1.71880552    0.01333998       7
Co     1.77518313   -1.69803432    0.00274443       8
Cr    -1.76851885    0.02697472   -1.76038458       9
Co     1.75019425    0.03873754   -1.78834818      10
Cr    -0.07260274   -1.73058128    1.80244808      11
Co    -0.05121966    1.82214322   -1.78002608      12
Ni    -0.00696948    0.04654054    0.04312419      13
Cr    -1.83463376    0.04269787    1.80890116      14
Ni     1.75747488    0.06108105    1.79586925      15
Cr    -1.73268088    1.79500722    0.08393988      16
Cr     1.75001913    1.80348752    0.00033699      17
Co    -0.05930929   -1.68995771   -1.81445831      18
