          18
Lattice="  24.8920   0.0000   0.0000   0.0000  24.8920   0.0000   0.0000   0.0000  24.8920 " ConfE="      -5927.3196" DelE="          0.0000"
Co    -0.11031750   -3.46639640   -0.10669784       1
Cr    -0.00826455   -0.05812907    3.22851145       2
Co    -0.09747070    0.07755527   -3.73201431       3
Co    -0.10554926    3.63703014   -0.12529745       4
Cr    -3.69284768    0.09978197   -0.14513401       5
Cr     3.43618638    0.07332636   -0.16368253       6
Co     1.66638722   -1.71581339   -0.13461764       7
Cr    -1.87221874    0.09078749    1.60292248       8
Cr    -1.77838377   -1.73117293   -0.07793484       9
Co     1.71760721    0.04719522    1.61574989      10
Ni    -0.06751980    1.82529965   -1.91025740      11
Ni     1.69673651    1.88140106   -0.15810739      12
Ni    -1.82369904    0.06334550   -1.88691121      13
Cr    -0.07728928   -1.68253408   -1.90341872      14
Cr    -0.05138228    1.88010518    1.62783733      15
Cr    -1.88812437    1.86558022   -0.13568300      16
Co     1.70617794    0.08001687   -1.92459382      17
Cr     0.00000000    0.00000000    0.00000000      18
          18
Lattice="  24.8920   0.0000   0.0000   0.0000  24.8920   0.0000   0.0000   0.0000  24.8920 " ConfE="      -5926.9690" DelE="          0.3506"
Co    -0.12308405   -3.38704234   -0.20122273       1
Cr    -0.01962411   -0.07125753    3.34782805       2
Co    -0.09382764    0.09234555   -3.77916011       3
Co    -0.12097423    3.60220830   -0.11944849       4
Cr    -3.77897070    0.18599225   -0.17377023       5
Cr     3.52277133    0.08861166   -0.18152801       6
Co     1.85709536   -1.72998907   -0.19993911       7
Cr    -1.91569298   -0.02872142    1.68648087       8
Cr    -2.02460006   -1.58682437   -0.28711001       9
Co     1.79958941    0.05054821    1.65397060      10
Ni    -0.07566578    1.79760396   -1.91026076      11
Ni     1.65505079    1.79242761   -0.14143958      12
Ni    -1.85543682    0.08460913   -1.97893491      13
Cr    -0.05333022   -1.60962520   -1.94144679      14
Cr    -0.06014917    1.75699504    1.61958992      15
Cr    -1.80514303    1.64782493   -0.10085245      16
Co     1.67299260    0.04540962   -1.89609035      17
Cr    -0.00081326   -0.69963241    0.47880688      18
          18
Lattice="  24.8920   0.0000   0.0000   0.0000  24.8920   0.0000   0.0000   0.0000  24.8920 " ConfE="      -5927.5555" DelE="         -0.2359"
Co    -0.10783143   -3.51785867   -0.15367770       1
Cr    -0.04001005    0.00410181    3.41569967       2
Co    -0.09386298    0.08888095   -3.75563720       3
Co    -0.10730330    3.63766373   -0.12611568       4
Cr    -3.69970855    0.12101408   -0.15692490       5
Cr     3.50518486    0.09807859   -0.19450661       6
Co     1.70877788   -1.67203149   -0.20257879       7
Cr    -1.86697815    0.07991964    1.57354434       8
Cr    -1.82835793   -1.68025223   -0.18267906       9
Co     1.72393004    0.08432841    1.58530974      10
Ni    -0.06644591    1.82193841   -1.91987325      11
Ni     1.67622938    1.84213126   -0.17676389      12
Ni    -1.82469877    0.08392596   -1.91133769      13
Cr    -0.05427859   -1.61990225   -1.82721902      14
Cr    -0.04656700    1.70254420    1.55793538      15
Cr    -1.85269549    1.82890297   -0.14240913      16
Co     1.71632217    0.09310305   -1.93571811      17
Cr     0.02667114   -1.47584217    1.35542855      18
