          19
Lattice="  24.8920   0.0000   0.0000   0.0000  24.8920   0.0000   0.0000   0.0000  24.8920 " ConfE="      -5949.2908" DelE="          0.0000"
Ni    -0.00421109    0.02901200   -3.52592043       1
Ni    -3.56260628    0.04738746   -0.00734977       2
Cr     3.58805064    0.00158175    0.03082638       3
Cr     0.08242009   -3.53068061   -0.02559159       4
Ni     0.01220860    3.54524241   -0.01251514       5
Cr    -0.00266143    0.05715633    3.56787233       6
Cr    -1.85742860    0.04230558   -1.77296669       7
Cr    -0.01800198   -1.77074264   -1.77505816       8
Ni     0.00924345    1.76806095   -1.76575706       9
Ni     1.79242295    0.00606193   -1.76913661      10
Cr    -1.79414872   -1.73840755   -0.00040480      11
Co    -1.79659729    1.76747324    0.00641422      12
Ni     1.79952470   -1.73813780    0.00744548      13
Co     1.79652948    1.76890964    0.04543175      14
Co    -1.77104142    0.01381814    1.81130985      15
Cr    -0.00510012   -1.72677936    1.82689274      16
Co     0.01116120    1.77429399    1.77962168      17
Cr     1.78318917    0.07023022    1.78236565      18
Ni     0.00000000    0.00000000    0.00000000      19
          19
Lattice="  24.8920   0.0000   0.0000   0.0000  24.8920   0.0000   0.0000   0.0000  24.8920 " ConfE="      -5944.8419" DelE="          4.4489"
Ni     0.72278977   -0.03543157   -3.52841557       1
Ni    -3.73161238   -0.01726865    0.22446488       2
Cr     3.67496436    0.00587529    0.05979215       3
Cr     0.06503712   -3.49293989   -0.04107114       4
Ni     0.05422850    3.53921768    0.01547030       5
Cr     0.00664308    0.04003060    3.60437743       6
Cr    -1.43847474    0.35953802   -3.51222682       7
Cr    -0.11947466   -1.54480651   -1.68969987       8
Ni    -0.00667193    1.64870757   -1.72785024       9
Ni     1.93782011    0.03247408   -1.59271838      10
Cr    -1.76083251   -1.57398860   -0.02080151      11
Co    -1.73403083    1.90960888    0.33856044      12
Ni     1.78840397   -1.70537507    0.02072699      13
Co     1.81614021    1.77603926    0.09739618      14
Co    -1.75099946    0.00860997    1.86444004      15
Cr     0.00900907   -1.59292405    1.67666718      16
Co     0.09193629    1.71886238    1.82762090      17
Cr     1.79545361    0.11584753    1.75697836      18
Ni    -2.27076349    0.53156596   -1.45157838      19
          19
Lattice="  24.8920   0.0000   0.0000   0.0000  24.8920   0.0000   0.0000   0.0000  24.8920 " ConfE="      -5949.2058" DelE="          0.0851"
Ni     0.00932747    0.00200561   -3.52861809       1
Ni    -3.58820595    0.02341198    0.02484956       2
Cr     3.62794796    0.00774974    0.02413299       3
Cr     0.10359429   -3.58208065   -0.01395394       4
Ni     0.02002581    3.54853423   -0.01132367       5
Cr     0.00078733    0.04145959    3.58223661       6
Cr    -1.78728689   -0.00269370   -1.72502082       7
Cr    -0.02051624   -1.72620746   -1.64299577       8
Ni    -0.00650333    1.72726837   -1.72847504       9
Ni     1.77189408    0.00327252   -1.73599675      10
Cr    -1.77114994   -1.70934377    0.03285245      11
Co    -1.74999846    1.73889627    0.02378681      12
Ni     1.79821126   -1.70792220    0.01739237      13
Co     1.78399430    1.73205705    0.04530266      14
Co    -1.73151495    0.00702834    1.77180329      15
Cr     0.02057482   -1.64173192    1.70049984      16
Co     0.03236717    1.71927943    1.74350997      17
Cr     1.75901388    0.11002227    1.73351777      18
Ni    -3.56394680    1.78872264   -1.76265067      19
