          18
Lattice="  24.8920   0.0000   0.0000   0.0000  24.8920   0.0000   0.0000   0.0000  24.8920 " ConfE="      -5947.6310" DelE="          0.0000"
Cr    -0.01052656    3.36094360   -0.12415026       1
Co     0.04584615   -0.05748272    3.36294861       2
Cr     3.55032892   -0.12931692   -0.18775726       3
Co    -3.55525563   -0.16024535   -0.13093290       4
Co    -0.01137429   -3.72550439   -0.14130471       5
Co    -0.00855068   -0.11705772   -3.75273233       6
Ni     1.77893601    1.64285932   -0.09721468       7
Ni     0.01332617    1.60870356   -1.93508306       8
Cr     1.79833237   -0.09569389    1.69492571       9
Cr    -1.73782688   -0.10564332    1.63204065      10
Ni     0.04578718   -1.91688623    1.64264960      11
Cr    -1.80805289    1.61058741   -0.12012006      12
Ni     0.02094390   -1.85962525   -1.91053196      13
Ni     1.76362652   -1.88186056   -0.13352453      14
Co     1.80654097   -0.09688015   -1.91305551      15
Cr    -1.73764286   -1.81336436   -0.12332784      16
Co    -1.76479706   -0.12538624   -1.87160568      17
Co     0.00000000    0.00000000    0.00000000      18
          18
Lattice="  24.8920   0.0000   0.0000   0.0000  24.8920   0.0000   0.0000   0.0000  24.8920 " ConfE="      -5947.4906" DelE="          0.1404"
Cr    -0.01736302    3.27674487   -0.09261101       1
Co     0.03366868   -0.03534172    3.30625175       2
Cr     3.60107483   -0.15330536   -0.20791778       3
Co    -3.59475770   -0.17627074   -0.14220042       4
Co    -0.00684499   -3.71427879   -0.13553052       5
Co    -0.00112544   -0.10905585   -3.75134470       6
Ni     1.88165685    1.64173750   -0.14205220       7
Ni     0.02606915    1.57938231   -1.88686463       8
Cr     1.90933933   -0.10135947    1.67324029       9
Cr    -1.90126738   -0.13870506    1.69651929      10
Ni     0.04816875   -1.87151214    1.63149083      11
Cr    -1.93062866    1.60547643   -0.15587169      12
Ni     0.03842192   -1.83968919   -1.90630605      13
Ni     1.75840056   -1.84879534   -0.13590652      14
Co     1.84031265   -0.09580081   -1.92713037      15
Cr    -1.64593205   -1.68181504   -0.10438176      16
Co    -1.74381697   -0.12062348   -1.83674850      17
Co    -0.08609326    0.44815549    0.51131141      18
          18
Lattice="  24.8920   0.0000   0.0000   0.0000  24.8920   0.0000   0.0000   0.0000  24.8920 " ConfE="      -5947.8835" DelE="         -0.2525"
Cr    -0.00238264    3.39540113   -0.14351334       1
Co     0.03648104   -0.09615661    3.44640174       2
Cr     3.59065823   -0.13074884   -0.20651619       3
Co    -3.58496530   -0.16760761   -0.13608155       4
Co    -0.00700318   -3.71825480   -0.13893834       5
Co    -0.00915410   -0.11462155   -3.76100627       6
Ni     1.75635140    1.57387490   -0.12960484       7
Ni     0.00616566    1.57090264   -1.88706749       8
Cr     1.81559112   -0.11705963    1.67719637       9
Cr    -1.74993160   -0.12058533    1.62449212      10
Ni     0.04219680   -1.84914399    1.61652247      11
Cr    -1.79318959    1.54202944   -0.12796430      12
Ni     0.02927807   -1.84974836   -1.91369933      13
Ni     1.75613644   -1.84939020   -0.14309110      14
Co     1.82590709   -0.10637998   -1.93600059      15
Cr    -1.69324143   -1.73239702   -0.13565984      16
Co    -1.75840563   -0.13331181   -1.85586706      17
Co     0.01100649    1.56379818    1.59979751      18
