          18
Lattice="  24.8920   0.0000   0.0000   0.0000  24.8920   0.0000   0.0000   0.0000  24.8920 " ConfE="      -5926.6286" DelE="          0.0000"
Ni    -0.02148667    3.56391060   -0.01155067       1
Cr    -3.60561576    0.01316040   -0.01053556       2
Co     0.00296143   -3.65142807   -0.02423329       3
Cr     3.57771686   -0.03270721   -0.02462100       4
Co    -0.00179257   -0.06032621    3.46583201       5
Cr    -0.02549128   -0.04943737   -3.55262652       6
Ni    -1.79045721    1.81780973    0.03867182       7
Cr    -1.75891255   -0.03273139    1.75834238       8
Cr    -1.79679205    0.01551821   -1.75447183       9
Ni     1.80230100   -1.84216858    0.00237448      10
Cr    -0.13570813   -1.84341060    1.60919060      11
Cr    -0.25786886   -1.88425166   -1.51764842      12
Ni     1.78804252   -0.06841611    1.75554205      13
Cr     0.05978320    1.78626704    1.80574859      14
Co    -0.03058754    1.74578743   -1.79555326      15
Cr     1.77427185    1.76786865   -0.01911550      16
Co     1.71517523   -0.10799163   -1.78472667      17
Cr     0.00000000    0.00000000    0.00000000      18
          18
Lattice="  24.8920   0.0000   0.0000   0.0000  24.8920   0.0000   0.0000   0.0000  24.8920 " ConfE="      -5925.8650" DelE="          0.7636"
Ni    -0.02875441    3.55382875   -0.03479178       1
Cr    -3.61424037    0.03802770   -0.02929274       2
Co    -0.03023967   -3.57820969   -0.03871030       3
Cr     3.53293067   -0.04910080   -0.01935381       4
Co     0.02675416   -0.02500322    3.57719538       5
Cr     0.05747696   -0.00297979   -3.67032764       6
Ni    -1.72060973    1.67694080    0.00644128       7
Cr    -1.68478008    0.04340148    1.93043883       8
Cr    -1.78043776    0.08841055   -2.02086314       9
Ni     1.67236134   -1.80501722   -0.01286889      10
Cr    -0.03393963   -1.86157732    1.85406532      11
Cr     0.02291264   -1.89561471   -1.96372458      12
Ni     1.72020886   -0.06583908    1.74365481      13
Cr     0.06581390    1.75015817    1.74583056      14
Co    -0.01786552    1.66711902   -1.77940526      15
Cr     1.73311214    1.72600553   -0.02685598      16
Co     1.67667099   -0.07726380   -1.76895872      17
Cr    -1.03102546   -1.08403885   -0.07470396      18
          18
Lattice="  24.8920   0.0000   0.0000   0.0000  24.8920   0.0000   0.0000   0.0000  24.8920 " ConfE="      -5926.3472" DelE="          0.2814"
Ni    -0.02915517    3.55306058   -0.01360717       1
Cr    -3.63697805   -0.00854652   -0.02933243       2
Co     0.01315980   -3.63380919   -0.02751658       3
Cr     3.60753693   -0.02429706   -0.01109361       4
Co     0.01782850   -0.04370069    3.52472175       5
Cr    -0.02356900   -0.04022367   -3.56846324       6
Ni    -1.76425721    1.73456852    0.03875413       7
Cr    -1.73398633   -0.06883148    1.75539288       8
Cr    -1.76924455   -0.01265646   -1.75088328       9
Ni     1.79795611   -1.81174480    0.00582802      10
Cr    -0.00550779   -1.76431654    1.67366352      11
Cr     0.00486751   -1.76430890   -1.69154176      12
Ni     1.79048505   -0.04999544    1.74588653      13
Cr     0.05026507    1.68285797    1.72802910      14
Co    -0.02768802    1.66266179   -1.74083408      15
Cr     1.73913901    1.73077491   -0.01533894      16
Co     1.73918498   -0.05937731   -1.75003462      17
Cr    -1.78297543   -1.81732220   -0.02069810      18
