          18
Lattice="  24.8920   0.0000   0.0000   0.0000  24.8920   0.0000   0.0000   0.0000  24.8920 " ConfE="      -5922.5987" DelE="          0.0000"
Ni     3.51947297    0.02020060   -0.00674011       1
Ni     0.01819656    3.44530195    0.01862867       2
Cr    -3.54867942    0.03981088   -0.01366816       3
Ni    -0.06235022   -3.60755595   -0.00504161       4
Ni    -0.02899346   -0.03516548   -3.53922023       5
Cr    -0.04915791   -0.06160580    3.53969993       6
Co     1.75093704    0.01300556   -1.73955089       7
Cr     1.70023477    0.07520458    1.59895172       8
Co    -0.06293882    1.71136100   -1.79070192       9
Ni    -0.02498085    1.74740853    1.78513143      10
Cr     1.71383164   -1.77654757   -0.02292283      11
Co    -1.86586500    1.68505835    0.02447280      12
Cr    -1.78971249   -1.78586238   -0.05558468      13
Co    -0.01461423   -1.81057172   -1.76480937      14
Ni    -0.04348791   -1.83091808    1.75861817      15
Co    -1.84284132   -0.03404648   -1.74615957      16
Co    -1.81620037   -0.05052265    1.76460772      17
Co     0.00000000    0.00000000    0.00000000      18
          18
Lattice="  24.8920   0.0000   0.0000   0.0000  24.8920   0.0000   0.0000   0.0000  24.8920 " ConfE="      -5921.2914" DelE="          1.3073"
Ni     3.48104887    0.02365349   -0.00226824       1
Ni     0.00336697    3.44303271    0.04205124       2
Cr    -3.50967894    0.07341035   -0.02187290       3
Ni    -0.10936145   -3.51028367   -0.00158233       4
Ni    -0.03912378   -0.04181576   -3.60992101       5
Cr    -0.05249187   -0.08213569    3.67919403       6
Co     1.78232487   -0.05947240   -1.91742632       7
Cr     1.68219719   -0.06744021    1.81350839       8
Co    -0.11829773    1.70893943   -1.91691534       9
Ni    -0.10048295    1.74475988    1.93356745      10
Cr     1.58406412   -1.60717576   -0.06178454      11
Co    -1.76431198    1.63957845    0.01799432      12
Cr    -0.84634423   -0.82610499   -0.07814151      13
Co    -0.01367001   -1.83127139   -1.88165175      14
Ni    -0.04179809   -1.85681242    1.87292734      15
Co    -1.87215423    0.01285794   -1.86983388      16
Co    -1.80120864   -0.04639355    1.84420377      17
Co     1.00333083    1.01965245   -0.00873885      18
          18
Lattice="  24.8920   0.0000   0.0000   0.0000  24.8920   0.0000   0.0000   0.0000  24.8920 " ConfE="      -5922.4656" DelE="          0.1331"
Ni     3.54612455   -0.02021122   -0.00424748       1
Ni    -0.02235285    3.50299338    0.02138400       2
Cr    -3.46562375   -0.00209391   -0.01428994       3
Ni    -0.12393229   -3.57670791   -0.01122647       4
Ni    -0.04338927   -0.04358888   -3.53186906       5
Cr    -0.07501967   -0.06946421    3.56887774       6
Co     1.74867433   -0.03455832   -1.77081664       7
Cr     1.68937415    0.00297164    1.66761577       8
Co    -0.06548361    1.70403271   -1.76554794       9
Ni    -0.05729009    1.72783348    1.78015178      10
Cr     1.70739941   -1.76655090   -0.03050698      11
Co    -1.84633960    1.73568560    0.02576562      12
Cr    -0.11980014   -0.04643734   -0.13157647      13
Co    -0.04962629   -1.81049387   -1.73904100      14
Ni    -0.10097338   -1.81587346    1.71546990      15
Co    -1.84127261   -0.05900980   -1.71262480      16
Co    -1.83002227   -0.07372231    1.72441552      17
Co     1.73402191    1.68697773    0.01591351      18
