          18
Lattice="  24.8920   0.0000   0.0000   0.0000  24.8920   0.0000   0.0000   0.0000  24.8920 " ConfE="      -5946.9017" DelE="          0.0000"
Ni    -0.00859039    0.09945140   -3.43385730       1
Ni     3.44683202    0.05441989    0.00285564       2
Ni    -3.58931821    0.11565810    0.07021894       3
Ni    -0.02763323    0.11914357    3.61399276       4
Ni    -0.06864952   -3.47633290    0.04994131       5
Cr    -0.02268985    3.66480958    0.09806373       6
Ni    -0.03406934    1.85993018   -1.70300881       7
Ni     1.70766935    1.84057787    0.02989819       8
Ni    -1.78884154    1.87112541    0.07588717       9
Co     1.63953320   -1.62289351   -0.02233753      10
Co    -0.12500394   -1.68443130   -1.72480954      11
Ni    -0.03866071   -1.68344400    1.82241106      12
Cr    -0.02732872    1.90035973    1.83905903      13
Co    -1.87255406    0.08579579   -1.71395159      14
Co     1.73300131    0.09269486    1.85654225      15
Co    -1.81295074    0.08957028    1.81770477      16
Cr    -1.80250214   -1.67597251    0.03905339      17
Cr     0.00000000    0.00000000    0.00000000      18
          18
Lattice="  24.8920   0.0000   0.0000   0.0000  24.8920   0.0000   0.0000   0.0000  24.8920 " ConfE="      -5945.8538" DelE="          1.0479"
Ni    -0.02458478    0.10503635   -3.38808251       1
Ni     3.40104712    0.05699719   -0.00712970       2
Ni    -3.50931816    0.11629808    0.13592861       3
Ni    -0.04594146    0.12050800    3.54979525       4
Ni    -0.07156511   -3.54558834    0.06484096       5
Cr    -0.04067225    3.76245653    0.12100311       6
Ni    -0.07370365    1.98289941   -1.69109514       7
Ni     1.70143122    1.96378289    0.05189610       8
Ni    -1.83978777    2.05194206    0.03128942       9
Co     1.71468248   -1.83736094    0.07492297      10
Co    -0.14167684   -1.83470980   -1.74456670      11
Ni     0.01643258   -1.81831272    1.84502694      12
Cr    -0.01741517    1.98067081    1.81485095      13
Co    -1.76584599    0.07590955   -1.61589157      14
Co     1.64705782    0.08053838    1.73865652      15
Co    -0.96908431    0.11064160    0.97985969      16
Cr    -1.77528628   -1.74744506    0.03162058      17
Cr     0.88740053   -0.05614868   -0.87382330      18
          18
Lattice="  24.8920   0.0000   0.0000   0.0000  24.8920   0.0000   0.0000   0.0000  24.8920 " ConfE="      -5947.0467" DelE="         -0.1450"
Ni    -0.06541218    0.10027898   -3.47253160       1
Ni     3.49051785    0.05678948    0.04314658       2
Ni    -3.55377843    0.11104938    0.12239357       3
Ni    -0.05273758    0.12537269    3.57383116       4
Ni    -0.08493785   -3.47703436    0.06294111       5
Cr    -0.04047369    3.63575817    0.12614147       6
Ni    -0.07236660    1.87338126   -1.69339774       7
Ni     1.71525227    1.85800720    0.05324250       8
Ni    -1.81556890    1.86749050    0.12335374       9
Co     1.66752969   -1.66807774    0.02914466      10
Co    -0.13732553   -1.69655903   -1.71521853      11
Ni    -0.08713398   -1.65603849    1.80819207      12
Cr    -0.04908289    1.88222388    1.84928507      13
Co    -1.86064533    0.07546698   -1.71211444      14
Co     1.75195082    0.08678556    1.83807098      15
Co    -0.11264482    0.10245144    0.11599816      16
Cr    -1.84336323   -1.67911794    0.06365111      17
Cr     1.63204769   -0.02514882   -1.63413757      18
