          18
Lattice="  24.8920   0.0000   0.0000   0.0000  24.8920   0.0000   0.0000   0.0000  24.8920 " ConfE="      -5934.3630" DelE="          0.0000"
Ni     0.02012079   -3.52738629    0.02594225       1
Ni     0.04313235    0.00609995   -3.56267848       2
Co     0.02660288   -0.02478001    3.48649620       3
Co    -3.56179399   -0.02338248    0.00935369       4
Co     3.55017969   -0.02923199    0.00879514       5
Co     0.02955251    3.55416756   -0.03935422       6
Ni    -1.74235975   -1.75949242   -0.00149973       7
Cr     1.73873466   -1.76808758    0.10987972       8
Ni    -1.74002895    1.80034390   -0.02621969       9
Co    -1.75181690    0.00139219    1.76736046      10
Co     1.77073622   -0.01140981    1.74700583      11
Ni    -1.73663905    0.00999017   -1.80431181      12
Cr     1.79285013    1.80740287    0.00676449      13
Cr     0.04665811    1.82118145    1.75353427      14
Co     0.07322433   -1.81201131   -1.81079131      15
Cr     1.77468307    0.00184085   -1.75266788      16
Co     0.06289461    1.80656023   -1.77323023      17
Ni     0.00000000    0.00000000    0.00000000      18
          18
Lattice="  24.8920   0.0000   0.0000   0.0000  24.8920   0.0000   0.0000   0.0000  24.8920 " ConfE="      -5933.6447" DelE="          0.7182"
Ni     0.03422780   -3.48115614    0.02897245       1
Ni     0.03479660    0.00092416   -3.55889260       2
Co     0.05117498   -0.02317829    3.43605963       3
Co    -3.61848894   -0.01469338    0.00200006       4
Co     3.60302254   -0.01866230   -0.02982959       5
Co     0.01572686    3.56140634   -0.04631745       6
Ni    -1.87116663   -1.78447209   -0.05204431       7
Cr     1.96776477   -1.83982113    0.00823202       8
Ni    -1.72877734    1.76596170   -0.01727695       9
Co    -1.88109993    0.04446268    1.77364841      10
Co     2.01956379    0.06071241    1.82437499      11
Ni    -1.73981104    0.00086272   -1.77790774      12
Cr     1.76453109    1.75585822    0.00909890      13
Cr     0.05696326    1.72601331    1.69604221      14
Co     0.07026386   -1.76209715   -1.75196436      15
Cr     1.69670310   -0.02941539   -1.68187234      16
Co     0.08763234    1.72774414   -1.69630541      17
Ni     0.09967078   -0.80521534    0.79305149      18
          18
Lattice="  24.8920   0.0000   0.0000   0.0000  24.8920   0.0000   0.0000   0.0000  24.8920 " ConfE="      -5934.2428" DelE="          0.1201"
Ni     0.00232006   -3.57506855   -0.01954991       1
Ni     0.03640524    0.00716776   -3.59028557       2
Co     0.03153953    0.01860633    3.54928595       3
Co    -3.58147851   -0.01683384    0.00777805       4
Co     3.57942643   -0.02616385   -0.00049621       5
Co     0.02130904    3.57240050   -0.04948770       6
Ni    -1.73715724   -1.72305187   -0.03662811       7
Cr     1.73140813   -1.72424186    0.01549455       8
Ni    -1.69289471    1.76486448   -0.02257816       9
Co    -1.74795348    0.04312290    1.74577381      10
Co     1.74892903    0.03123743    1.70600297      11
Ni    -1.71109531    0.01677543   -1.78911151      12
Cr     1.74595430    1.75800092   -0.00058284      13
Cr     0.04283168    1.76019201    1.71894340      14
Co     0.07407174   -1.76836254   -1.77121351      15
Cr     1.69939708    0.00246229   -1.71564745      16
Co     0.08711365    1.75563448   -1.73464314      17
Ni    -0.00765700   -1.72289563    1.73262277      18
