          18
Lattice="  24.8920   0.0000   0.0000   0.0000  24.8920   0.0000   0.0000   0.0000  24.8920 " ConfE="      -5931.3255" DelE="          0.0000"
Ni     3.63679091    0.11855872    0.08193623       1
Co     0.00688397   -3.38387170    0.07193829       2
Cr    -3.40515200    0.13155062    0.08368502       3
Cr     0.05520613    3.75335362    0.07525665       4
Co     0.06928518    0.11101948   -3.48306106       5
Cr     0.06241470    0.08748433    3.64426521       6
Ni     0.04874720   -1.67862389    1.83714331       7
Ni    -1.69725619    0.09846993    1.82530317       8
Cr     0.02357058   -1.75043789   -1.71812734       9
Cr    -1.71447371    0.12277954   -1.69288041      10
Cr     1.84783139   -1.70357826    0.10668660      11
Cr     1.80602398    1.94586498    0.04042107      12
Cr     1.82158032    0.07474406   -1.72046689      13
Co     1.80269202    0.17305695    1.80516573      14
Co    -1.63626769    1.95318771    0.05385965      15
Cr     0.04545417    1.95362234   -1.78826988      16
Cr     0.03656765    1.91457644    1.88799707      17
Cr     0.00000000    0.00000000    0.00000000      18
          18
Lattice="  24.8920   0.0000   0.0000   0.0000  24.8920   0.0000   0.0000   0.0000  24.8920 " ConfE="      -5930.6696" DelE="          0.6558"
Ni     3.66997666    0.10852696    0.09328612       1
Co     0.05068809   -3.36229484    0.08545833       2
Cr    -3.49990437    0.14561727    0.11391729       3
Cr     0.04088520    3.71452300    0.09758770       4
Co     0.06561383    0.12440436   -3.50627126       5
Cr     0.07316908    0.13036590    3.69214155       6
Ni     0.09659697   -1.65663153    1.94293037       7
Ni    -1.72360268    0.12465812    1.93078797       8
Cr     0.14812447   -1.79228329   -1.88560677       9
Cr    -1.82766073    0.18420033   -1.82526287      10
Cr     1.83986759   -1.66400499    0.13208828      11
Cr     1.82901855    1.90234789    0.05975232      12
Cr     1.73570098    0.04893735   -1.61744809      13
Co     1.77759516    0.16233711    1.77726275      14
Co    -1.67758078    1.84702947    0.05941897      15
Cr     0.00052077    1.77027128   -1.57384212      16
Cr     0.02077084    1.78519697    1.70984553      17
Cr    -0.86780364   -0.86157519   -0.05731003      18
          18
Lattice="  24.8920   0.0000   0.0000   0.0000  24.8920   0.0000   0.0000   0.0000  24.8920 " ConfE="      -5931.2277" DelE="          0.0978"
Ni     3.62892117    0.10841978    0.08558561       1
Co     0.07526892   -3.47054650    0.09441044       2
Cr    -3.45178561    0.17519276    0.08010446       3
Cr     0.05671792    3.75398099    0.10033328       4
Co     0.07626034    0.12840190   -3.53865665       5
Cr     0.06072259    0.10508979    3.66760039       6
Ni     0.07538253   -1.66772743    1.87993707       7
Ni    -1.65956635    0.13067398    1.82454355       8
Cr     0.07714680   -1.72299818   -1.76677106       9
Cr    -1.54959451    0.15506721   -1.64035741      10
Cr     1.67863622   -1.59219504    0.08814489      11
Cr     1.76217137    1.88130223    0.06886140      12
Cr     1.70326279    0.11328889   -1.66784053      13
Co     1.77020559    0.18055254    1.79072592      14
Co    -1.59714838    1.89819620    0.05256900      15
Cr     0.05116345    1.96447031   -1.75477448      16
Cr     0.04522991    1.90976173    1.87612752      17
Cr    -1.54489456   -1.61196668    0.05538853      18
