          18
Lattice="  24.8920   0.0000   0.0000   0.0000  24.8920   0.0000   0.0000   0.0000  24.8920 " ConfE="      -5946.8377" DelE="          0.0000"
Cr    -0.04066809    0.01611922    3.28655061       1
Ni     0.02970272    3.52031091   -0.04939404       2
Ni     0.00221754   -0.01271885   -3.64107630       3
Cr     0.07354922   -3.58911840   -0.08094464       4
Co     3.55642989   -0.04082150   -0.07158902       5
Co    -3.50346600    0.00119080   -0.10428835       6
Cr     1.78606446    0.02618513    1.64024210       7
Co    -1.70359771    0.00404810    1.68142672       8
Cr     1.77618052    1.70865928   -0.10018978       9
Ni    -1.72087585    1.77739378   -0.03694645      10
Co     0.04780608   -1.83940459    1.67281575      11
Co     0.00229770    1.76107035   -1.87110863      12
Ni     0.01612652   -1.79128941   -1.85454658      13
Co     1.79429983   -1.78303107   -0.09086414      14
Co    -1.76629901   -1.79320453   -0.09062209      15
Co     1.77882466    0.00658304   -1.80690125      16
Cr    -1.72447868    0.01448593   -1.79648793      17
Cr     0.00000000    0.00000000    0.00000000      18
          18
Lattice="  24.8920   0.0000   0.0000   0.0000  24.8920   0.0000   0.0000   0.0000  24.8920 " ConfE="      -5946.0314" DelE="          0.8063"
Cr    -0.03819862   -0.00161362    3.39747995       1
Ni     0.01900203    3.50978948   -0.07002414       2
Ni     0.00449435   -0.01243701   -3.63120195       3
Cr     0.08691100   -3.56733401   -0.05026070       4
Co     3.64545685   -0.05222764   -0.10202217       5
Co    -3.59964147   -0.00102455   -0.12735506       6
Cr     1.94287569   -0.04530108    1.58887077       7
Co    -1.86599834   -0.03902803    1.67377266       8
Cr     1.87706908    1.69933974   -0.17516150       9
Ni    -1.88817779    1.82386462   -0.12066272      10
Co     0.06050706   -1.68117425    1.66178830      11
Co    -0.00986479    1.70833730   -1.78321276      12
Ni     0.03697956   -1.77555307   -1.82174131      13
Co     1.78811360   -1.73638123   -0.07087894      14
Co    -1.74036025   -1.73076717   -0.08235178      15
Co     1.77191426    0.01560027   -1.75870673      16
Cr    -1.60494141    0.00182752   -1.64576942      17
Cr    -0.03509988    1.03643059    0.99829559      18
          18
Lattice="  24.8920   0.0000   0.0000   0.0000  24.8920   0.0000   0.0000   0.0000  24.8920 " ConfE="      -5946.3885" DelE="          0.4492"
Cr    -0.02998971   -0.03196930    3.43809719       1
Ni     0.01764836    3.56512885   -0.08421713       2
Ni     0.00258235   -0.01410145   -3.65201285       3
Cr     0.07186731   -3.58312581   -0.07727308       4
Co     3.60125460   -0.05176827   -0.09749935       5
Co    -3.54673734   -0.00195031   -0.11158179       6
Cr     1.77396847   -0.03993493    1.56479085       7
Co    -1.69698847   -0.00362019    1.66403817       8
Cr     1.74931051    1.65352654   -0.16708600       9
Ni    -1.73622573    1.74476818   -0.09365362      10
Co     0.06048503   -1.75009009    1.65528478      11
Co     0.00707060    1.73584638   -1.83329658      12
Ni     0.02211237   -1.76239690   -1.83000716      13
Co     1.78651628   -1.76385569   -0.09160460      14
Co    -1.74874751   -1.75377591   -0.10068184      15
Co     1.77301706    0.00607867   -1.79664906      16
Cr    -1.70297671   -0.00308202   -1.78002859      17
Cr     0.00274322    1.63300434    1.59566685      18
