          18
Lattice="  24.8920   0.0000   0.0000   0.0000  24.8920   0.0000   0.0000   0.0000  24.8920 " ConfE="      -5938.4261" DelE="          0.0000"
Ni     0.06883209   -0.00775134    3.52837671       1
Ni    -3.42276614    0.02850224   -0.00140236       2
Ni     0.06715373   -3.51619408    0.00922622       3
Ni     0.06437000    0.03451819   -3.60186415       4
Ni     3.58298448    0.03408619   -0.04822348       5
Co     0.09995221    3.53459379   -0.02230962       6
Ni     0.04920688   -1.74326853    1.78164063       7
Cr    -1.63353784    1.66913168    0.09942912       8
Co     0.07198893    1.76033746    1.73019618       9
Ni     0.05934907    1.78399645   -1.81018490      10
Cr    -1.64393145   -1.65241740    0.04228749      11
Cr     1.80354204    1.76016306   -0.02742180      12
Co     1.87375125    0.03394128    1.75958608      13
Cr    -1.68361319    0.01197947   -1.76197571      14
Co     1.82320274   -1.74311199   -0.00538734      15
Co     1.82552802    0.01425647   -1.81636070      16
Co     0.07193473   -1.74520730   -1.79927631      17
Co     0.00000000    0.00000000    0.00000000      18
          18
Lattice="  24.8920   0.0000   0.0000   0.0000  24.8920   0.0000   0.0000   0.0000  24.8920 " ConfE="      -5937.7728" DelE="          0.6534"
Ni     0.10490114   -0.02403740    3.51723947       1
Ni    -3.37751567    0.03924770   -0.00076039       2
Ni     0.08168365   -3.56230815    0.00365651       3
Ni     0.06874596    0.03878197   -3.59785387       4
Ni     3.60175909    0.03245920   -0.04599298       5
Co     0.12483657    3.58779464   -0.03716265       6
Ni     0.10702898   -1.85310290    1.80623030       7
Cr    -1.70285216    1.95310984    0.03362243       8
Co     0.19118201    1.90889053    1.76541755       9
Ni     0.05778417    1.77468102   -1.76334171      10
Cr    -1.66805666   -1.83454270    0.01344625      11
Cr     1.77627592    1.71498569   -0.00263028      12
Co     1.81605833    0.02437622    1.70203551      13
Cr    -1.63230734    0.00177104   -1.68876269      14
Co     1.80864635   -1.74342454   -0.01530883      15
Co     1.79917120    0.01791799   -1.77584182      16
Co     0.00155061   -1.68112710   -1.71232481      17
Co    -0.76117987    0.07171874    0.73900647      18
          18
Lattice="  24.8920   0.0000   0.0000   0.0000  24.8920   0.0000   0.0000   0.0000  24.8920 " ConfE="      -5938.2644" DelE="          0.1617"
Ni     0.09114344   -0.00025472    3.55252352       1
Ni    -3.46994967    0.02171781   -0.02884520       2
Ni     0.07328550   -3.53526140    0.00548397       3
Ni     0.06867319    0.03475433   -3.61307619       4
Ni     3.60306498    0.03588427   -0.04723214       5
Co     0.11754258    3.56454030   -0.03468865       6
Ni     0.08231598   -1.74024063    1.75156103       7
Cr    -1.60684823    1.68883825    0.04839973       8
Co     0.12193030    1.76310437    1.67821698       9
Ni     0.07270946    1.75703875   -1.77577159      10
Cr    -1.61179221   -1.65938934   -0.00174644      11
Cr     1.78800571    1.72225067   -0.00576155      12
Co     1.85264259    0.03562367    1.73057616      13
Cr    -1.64263829    0.00367027   -1.70390795      14
Co     1.80087085   -1.71500382   -0.02275992      15
Co     1.82137296    0.01592266   -1.80042441      16
Co     0.01342215   -1.67373418   -1.73276369      17
Co    -1.65257334    0.03228235    1.70353234      18
