          18
Lattice="  24.8920   0.0000   0.0000   0.0000  24.8920   0.0000   0.0000   0.0000  24.8920 " ConfE="      -5924.8365" DelE="          0.0000"
Cr     0.04463928    3.45326494   -0.08320733       1
Co     3.47309701   -0.03129505   -0.01189590       2
Co    -0.08458033   -3.56036702   -0.02141984       3
Ni    -3.68097757   -0.01210254   -0.00352947       4
Ni    -0.05095246   -0.03798539    3.53907178       5
Co    -0.03322399    0.01336096   -3.50286887       6
Cr     0.01921300    1.75136781    1.72267022       7
Co    -0.01530099    1.77850311   -1.70137247       8
Ni     1.73081660   -0.03271144    1.75410819       9
Cr     1.74857082   -0.02665746   -1.68385967      10
Cr    -1.89102035    1.68662299   -0.07063657      11
Cr     1.75234270   -1.83967003   -0.04309276      12
Cr    -1.88130866   -1.73702542   -0.02438525      13
Cr    -1.81097594   -0.03919898    1.74511073      14
Co    -1.84532760   -0.01136030   -1.72246656      15
Co    -0.04533508   -1.81488085    1.73869224      16
Ni    -0.06911693   -1.77836832   -1.77766792      17
Ni     0.00000000    0.00000000    0.00000000      18
          18
Lattice="  24.8920   0.0000   0.0000   0.0000  24.8920   0.0000   0.0000   0.0000  24.8920 " ConfE="      -5924.3403" DelE="          0.4962"
Cr     0.03734779    3.45738757   -0.09248672       1
Co     3.44225693   -0.02813229    0.00320748       2
Co    -0.06938344   -3.56075906   -0.01955614       3
Ni    -3.65740271    0.00389934   -0.00713926       4
Ni    -0.06647410   -0.06164133    3.63150265       5
Co    -0.02981963   -0.01729831   -3.57341125       6
Cr    -0.05741289    1.72272879    1.93790180       7
Co    -0.07337518    1.81363226   -1.98880997       8
Ni     1.74314492   -0.09366056    1.92031723       9
Cr     1.73026762   -0.08290056   -1.86713560      10
Cr    -1.73436371    1.62149569   -0.11274807      11
Cr     1.66422543   -1.69774651   -0.02541619      12
Cr    -1.77874132   -1.64574938   -0.03762049      13
Cr    -1.71456918   -0.01823421    1.69461657      14
Co    -1.78527582   -0.00111538   -1.72234237      15
Co    -0.06063857   -1.74138035    1.70709262      16
Ni    -0.05129851   -1.75114045   -1.77647390      17
Ni     0.96442054    1.03064621   -0.01491953      18
          18
Lattice="  24.8920   0.0000   0.0000   0.0000  24.8920   0.0000   0.0000   0.0000  24.8920 " ConfE="      -5924.8300" DelE="          0.0066"
Cr    -0.04146264    3.52938829   -0.06809467       1
Co     3.55041080   -0.05754497    0.01639376       2
Co    -0.08540155   -3.57890184   -0.02252776       3
Ni    -3.68842530   -0.00619086   -0.00472024       4
Ni    -0.05379664   -0.04352254    3.56423851       5
Co    -0.04213590    0.00344930   -3.53147395       6
Cr    -0.04913034    1.68676447    1.71389603       7
Co    -0.07099776    1.72662607   -1.69371988       8
Ni     1.70792926   -0.04936070    1.74890364       9
Cr     1.68852728   -0.06522646   -1.68437945      10
Cr    -1.79540310    1.62618868   -0.08907798      11
Cr     1.69358397   -1.77773218   -0.02555667      12
Cr    -1.83713603   -1.68796918   -0.03678360      13
Cr    -1.75920248   -0.04562694    1.69868938      14
Co    -1.82214216   -0.02441309   -1.70181315      15
Co    -0.07589135   -1.74967158    1.68434857      16
Ni    -0.07147276   -1.75823294   -1.75676562      17
Ni     1.70857259    1.69379320   -0.00666807      18
