          18
Lattice="  24.8920   0.0000   0.0000   0.0000  24.8920   0.0000   0.0000   0.0000  24.8920 " ConfE="      -5938.2725" DelE="          0.0000"
Ni     0.00425413    3.42590913   -0.00554086       1
Co     3.53495488   -0.05618503    0.01451524       2
Co     0.02418222   -3.59585496    0.03199884       3
Co    -3.58695755   -0.02391908    0.06889804       4
Co    -0.02307296   -0.01386173    3.60900208       5
Co    -0.05736414   -0.08848382   -3.57847014       6
Ni     1.76357325   -0.03480939    1.79456954       7
Ni     1.75486457    0.00891272   -1.73465804       8
Ni     0.01434028    1.70616000    1.79261068       9
Ni     1.77131511   -1.83567990    0.02239206      10
Co    -0.05435815    1.74897950   -1.82577685      11
Ni    -1.76968964   -0.04776762    1.79030070      12
Ni    -0.03666705   -1.78748666   -1.74744545      13
Co    -1.86001362    1.72287656    0.00143206      14
Co    -1.82700535   -0.05134620   -1.74053652      15
Cr    -1.81456959   -1.80644032    0.04326903      16
Co     0.00160921   -1.84059333    1.78247774      17
Ni     0.00000000    0.00000000    0.00000000      18
          18
Lattice="  24.8920   0.0000   0.0000   0.0000  24.8920   0.0000   0.0000   0.0000  24.8920 " ConfE="      -5937.4473" DelE="          0.8251"
Ni     0.00937411    3.39621557    0.01684239       1
Co     3.50790894   -0.03285388    0.01742320       2
Co     0.04472906   -3.59285814    0.02412885       3
Co    -3.58321738   -0.01719248    0.06760504       4
Co    -0.03138605   -0.03460899    3.67117530       5
Co    -0.06929707   -0.09909798   -3.62727497       6
Ni     1.77793392   -0.06949647    1.94237648       7
Ni     1.78752435   -0.06025424   -1.88696877       8
Ni    -0.02846897    1.73171882    1.97061200       9
Ni     1.73092938   -1.74296626    0.02759534      10
Co    -0.09180195    1.77454684   -1.95149099      11
Ni    -1.72724940   -0.05285607    1.77601597      12
Ni    -0.03086176   -1.74064772   -1.73090041      13
Co    -1.76821446    1.67633569    0.00702657      14
Co    -1.77647297   -0.04234034   -1.70953215      15
Cr    -1.75473778   -1.75158552    0.03767050      16
Co     0.00345217   -1.81644465    1.77671593      17
Ni     0.99334480    1.00024666   -0.00201616      18
          18
Lattice="  24.8920   0.0000   0.0000   0.0000  24.8920   0.0000   0.0000   0.0000  24.8920 " ConfE="      -5938.0144" DelE="          0.2581"
Ni    -0.01864480    3.47357722   -0.00211310       1
Co     3.56617740   -0.10137568    0.02867864       2
Co     0.03311425   -3.62613534    0.02435778       3
Co    -3.60284369   -0.03349234    0.06979433       4
Co    -0.03156952   -0.02685183    3.62638379       5
Co    -0.06305617   -0.09893545   -3.59820691       6
Ni     1.73736703   -0.07323365    1.80492860       7
Ni     1.71962852   -0.03288182   -1.74341273       8
Ni    -0.01550058    1.66716439    1.77664847       9
Ni     1.75001346   -1.81759075    0.02521873      10
Co    -0.05691178    1.72433537   -1.80456809      11
Ni    -1.74706422   -0.07120675    1.75445210      12
Ni    -0.04315138   -1.76625114   -1.71431328      13
Co    -1.79827658    1.68615704   -0.00130571      14
Co    -1.78639490   -0.06183388   -1.69096255      15
Cr    -1.78580316   -1.79976570    0.04180325      16
Co    -0.01599831   -1.84156568    1.75292177      17
Ni     1.70992490    1.64542355    0.01467992      18
