          18
Lattice="  24.8920   0.0000   0.0000   0.0000  24.8920   0.0000   0.0000   0.0000  24.8920 " ConfE="      -5946.3224" DelE="          0.0000"
Ni    -3.46781840    0.03169178   -0.04734913       1
Ni    -0.00995714    0.00327698    3.58919176       2
Co     0.00411168   -0.00206475   -3.51900020       3
Co     3.53041240   -0.01023654    0.02605230       4
Cr     0.00288931   -3.48675860    0.02600382       5
Cr     0.04126078    3.55738499   -0.04659507       6
Cr    -1.67816666   -1.69784261   -0.04976074       7
Co    -1.71224329    1.78558992    0.00899788       8
Co     0.03011568   -1.74538090   -1.76786956       9
Co    -0.01755621    1.75414894   -1.77235141      10
Ni    -1.75621782    0.01466458    1.82359499      11
Co     1.76265305   -1.74607619    0.03086016      12
Cr     1.74148938    1.71391331   -0.01850307      13
Cr     1.81891311    0.00442518   -1.81365405      14
Cr     1.77262744    0.00761357    1.79483427      15
Co     0.00591396   -1.75627873    1.80778309      16
Cr     0.01155752    1.78451407    1.75997900      17
Co     0.00000000    0.00000000    0.00000000      18
          18
Lattice="  24.8920   0.0000   0.0000   0.0000  24.8920   0.0000   0.0000   0.0000  24.8920 " ConfE="      -5945.4198" DelE="          0.9026"
Ni    -3.43012274    0.03452770   -0.05636619       1
Ni    -0.00979157    0.00715765    3.58063658       2
Co     0.01489036   -0.01711012   -3.46671342       3
Co     3.53120976   -0.01233920    0.01400587       4
Cr     0.04714226   -3.58317032    0.03237588       5
Cr     0.06627026    3.67057435   -0.04804187       6
Cr    -1.67567970   -1.84805288    0.02517731       7
Co    -1.70789827    1.94082948    0.06969773       8
Co     0.10217089   -1.91454046   -1.79910640       9
Co     0.06329609    1.93682210   -1.77572871      10
Ni    -1.71565039    0.02249102    1.75634655      11
Co     1.71600968   -1.72921869    0.03120963      12
Cr     1.69486569    1.71360885   -0.03139558      13
Cr     1.71725262   -0.01859261   -1.70533000      14
Cr     1.68374791    0.00408532    1.67696474      15
Co     0.00023388   -1.74547408    1.76738199      16
Cr     0.00109945    1.77334057    1.70963297      17
Co    -0.92941112    0.00508574   -1.00061923      18
          18
Lattice="  24.8920   0.0000   0.0000   0.0000  24.8920   0.0000   0.0000   0.0000  24.8920 " ConfE="      -5945.9462" DelE="          0.3763"
Ni    -3.53278521    0.03778758    0.00262457       1
Ni    -0.01303522    0.00326194    3.59583682       2
Co     0.03349988   -0.00958217   -3.55800357       3
Co     3.54188073   -0.01238429    0.01974825       4
Cr     0.00724276   -3.53239092    0.03190046       5
Cr     0.05219564    3.60386762   -0.03950710       6
Cr    -1.64397559   -1.67763866   -0.02873055       7
Co    -1.67313975    1.77466264    0.03673320       8
Co     0.05278645   -1.74365153   -1.74886972       9
Co     0.04040309    1.76010222   -1.72891813      10
Ni    -1.73133775    0.01614124    1.78362563      11
Co     1.70947964   -1.69513492    0.04057187      12
Cr     1.71353267    1.68753260   -0.01434771      13
Cr     1.76810759   -0.00559139   -1.76326145      14
Cr     1.72681994    0.00542946    1.74273001      15
Co    -0.00253402   -1.73451013    1.77544173      16
Cr     0.01321554    1.76685725    1.73391946      17
Co    -1.70282667    0.01436859   -1.71771348      18
