          18
Lattice="  24.8920   0.0000   0.0000   0.0000  24.8920   0.0000   0.0000   0.0000  24.8920 " ConfE="      -5925.7244" DelE="          0.0000"
Ni     0.03279050   -3.46585898    0.06711629       1
Ni     3.50250126    0.00464980    0.00450732       2
Co    -0.03424954    3.55471130    0.04002564       3
Cr    -3.60583916    0.00817982    0.00149672       4
Ni    -0.03577190    0.02021595   -3.53907930       5
Cr    -0.03135186    0.06030517    3.52690005       6
Co    -0.02248841   -1.76507269   -1.75654560       7
Cr     0.00233405   -1.74024116    1.79825427       8
Co     1.76211776   -0.00422357   -1.78224659       9
Ni     1.75221708   -0.01130867    1.73445649      10
Co    -1.82194594   -1.75906487    0.02050647      11
Co     1.79652521    1.84038844    0.03360150      12
Co    -1.84728557    1.82965971    0.00436573      13
Ni    -1.81131228    0.03201519   -1.76746741      14
Ni    -1.82806426    0.02479368    1.75345954      15
Ni    -0.00996978    1.77313810   -1.74916458      16
Co    -0.00162238    1.79760627    1.78488781      17
Ni     0.00000000    0.00000000    0.00000000      18
          18
Lattice="  24.8920   0.0000   0.0000   0.0000  24.8920   0.0000   0.0000   0.0000  24.8920 " ConfE="      -5925.1615" DelE="          0.5629"
Ni     0.06965025   -3.41119403    0.07103785       1
Ni     3.48268780    0.00265236    0.01677257       2
Co    -0.03088815    3.55093173    0.04375237       3
Cr    -3.61517145    0.00004561    0.00365594       4
Ni    -0.04255428    0.02239644   -3.57390594       5
Cr    -0.04058196    0.09128856    3.57054991       6
Co    -0.07837095   -1.81844390   -1.90836508       7
Cr    -0.04100748   -1.75177071    1.94825019       8
Co     1.80711754    0.02540284   -1.90016450       9
Ni     1.82113160    0.05773477    1.90195388      10
Co    -1.77630229   -1.73405950    0.02327094      11
Co     1.77798174    1.79300055    0.03832400      12
Co    -1.83097717    1.79924261    0.00378452      13
Ni    -1.79296215    0.01454455   -1.75555764      14
Ni    -1.81537572    0.02173744    1.75351894      15
Ni    -0.00212113    1.70921389   -1.69839579      16
Co     0.00671032    1.74584574    1.75839680      17
Ni     0.62218373   -0.63960910    0.02102740      18
          18
Lattice="  24.8920   0.0000   0.0000   0.0000  24.8920   0.0000   0.0000   0.0000  24.8920 " ConfE="      -5925.9381" DelE="         -0.2136"
Ni    -0.02573965   -3.53514477    0.07507059       1
Ni     3.54201558    0.03286025    0.00662954       2
Co    -0.03517770    3.56925817    0.04288401       3
Cr    -3.62314774    0.01287249    0.00379298       4
Ni    -0.04149657    0.02517169   -3.54122351       5
Cr    -0.04235001    0.08366039    3.55105182       6
Co    -0.05685060   -1.74825978   -1.74753401       7
Cr    -0.05627563   -1.69518535    1.78451964       8
Co     1.75468133    0.02119231   -1.78612570       9
Ni     1.70951451    0.03591310    1.73394776      10
Co    -1.76929749   -1.73186624    0.03298300      11
Co     1.78988714    1.81948211    0.03435836      12
Co    -1.85229424    1.83228564    0.00672616      13
Ni    -1.79175874    0.03577628   -1.72910745      14
Ni    -1.80625364    0.04134807    1.73240218      15
Ni    -0.01023309    1.72727290   -1.68048577      16
Co    -0.01347812    1.77864813    1.75443035      17
Ni     1.70023543   -1.70481330    0.00491464      18
