          18
Lattice="  24.8920   0.0000   0.0000   0.0000  24.8920   0.0000   0.0000   0.0000  24.8920 " ConfE="      -5940.3149" DelE="          0.0000"
Ni    -0.05131293    0.01223298   -3.49682224       1
Cr    -0.07440722   -3.58534227    0.03902925       2
Ni    -3.62382375   -0.02256533    0.04275585       3
Co     3.52797420   -0.07189154    0.05050992       4
Cr    -0.05751705    3.55392186    0.04892213       5
Co    -0.04280648    0.00973102    3.61517279       6
Ni    -0.01453272   -1.78838824   -1.69487474       7
Ni    -0.01636941   -1.80730679    1.77110028       8
Ni     1.75762767   -0.05216077    1.78885578       9
Ni    -1.82988301   -0.01745763   -1.71541330      10
Cr     1.77197476   -0.03261647   -1.72593228      11
Ni    -1.84567034   -1.81187116    0.03740342      12
Ni    -1.81567078   -0.01958095    1.81545020      13
Ni     1.75500268    1.74847373    0.05943985      14
Cr    -1.81012983    1.77565114    0.06514909      15
Cr    -0.04200904    1.77307663   -1.71361521      16
Co    -0.03172804    1.78180644    1.83178139      17
Co     0.00000000    0.00000000    0.00000000      18
          18
Lattice="  24.8920   0.0000   0.0000   0.0000  24.8920   0.0000   0.0000   0.0000  24.8920 " ConfE="      -5939.6381" DelE="          0.6768"
Ni    -0.07535906    0.02431690   -3.53206331       1
Cr    -0.02731041   -3.52473681    0.01056227       2
Ni    -3.61354952   -0.03428957    0.04774672       3
Co     3.46233353   -0.08186036    0.05938519       4
Cr    -0.05533752    3.58619248    0.05496683       5
Co    -0.06295752    0.01761188    3.67325556       6
Ni    -0.08747189   -1.84238354   -1.86655495       7
Ni    -0.03910071   -1.82227857    1.87965056       8
Ni     1.76552400    0.01274311    1.95266086       9
Ni    -1.78958298   -0.02795333   -1.68452882      10
Cr     1.79947825    0.00273162   -1.88571825      11
Ni    -1.78224515   -1.80406451    0.03873196      12
Ni    -1.78575295   -0.02942618    1.81391308      13
Ni     1.71973474    1.71047005    0.07017270      14
Cr    -1.73629014    1.72946215    0.08022236      15
Cr    -0.01830580    1.69808455   -1.65383135      16
Co    -0.03919827    1.77532919    1.83424339      17
Co     0.75275876   -0.63949157   -0.06022751      18
          18
Lattice="  24.8920   0.0000   0.0000   0.0000  24.8920   0.0000   0.0000   0.0000  24.8920 " ConfE="      -5940.4595" DelE="         -0.1446"
Ni    -0.05631743    0.01922180   -3.51221274       1
Cr    -0.07467105   -3.60153328    0.03980645       2
Ni    -3.62752900   -0.02194313    0.04539214       3
Co     3.56188535   -0.04610387    0.04434190       4
Cr    -0.06337941    3.59659274    0.04994411       5
Co    -0.05138747    0.01833030    3.63461297       6
Ni    -0.02908558   -1.75875978   -1.69073243       7
Ni    -0.04384756   -1.79727702    1.80124496       8
Ni     1.72160185   -0.02123246    1.80500886       9
Ni    -1.79016647   -0.00557322   -1.67510805      10
Cr     1.75883454   -0.02808344   -1.73484460      11
Ni    -1.81356346   -1.80062873    0.04555925      12
Ni    -1.80446369   -0.01341554    1.80191641      13
Ni     1.69973938    1.69346969    0.04713551      14
Cr    -1.78932888    1.78005584    0.06190085      15
Cr    -0.05666122    1.76891192   -1.69374870      16
Co    -0.05576365    1.77518067    1.79819602      17
Co     1.73257159   -1.77241738    0.06602163      18
