          18
Lattice="  24.8920   0.0000   0.0000   0.0000  24.8920   0.0000   0.0000   0.0000  24.8920 " ConfE="      -5937.2213" DelE="          0.0000"
Co    -3.44546328    0.01905845    0.08664031       1
Co     0.04347296    3.46987547    0.04167729       2
Ni     3.56953175   -0.04040195    0.06028666       3
Ni     0.06969882   -3.64883645    0.08162192       4
Co    -0.04484529   -0.02185887    3.56682535       5
Ni     0.04235606   -0.00666510   -3.49573676       6
Cr    -1.74748173    0.05423044    1.68700023       7
Co    -1.67916103    0.01580174   -1.62857508       8
Ni    -0.00341897    1.73079517    1.79022402       9
Co     0.07593030    1.72086327   -1.66631005      10
Co    -1.73151575   -1.83708646    0.06878048      11
Cr     1.86355427    1.78203999    0.12481640      12
Ni     1.80499295   -1.81575950    0.05059459      13
Ni     0.01893161   -1.81743722    1.83066741      14
Co     0.04099463   -1.82138549   -1.72480214      15
Ni     1.78838694   -0.05168973    1.83336904      16
Cr     1.79065831    0.02623068   -1.71944823      17
Cr     0.00000000    0.00000000    0.00000000      18
          18
Lattice="  24.8920   0.0000   0.0000   0.0000  24.8920   0.0000   0.0000   0.0000  24.8920 " ConfE="      -5936.5718" DelE="          0.6494"
Co    -3.38254502    0.02751714    0.08514364       1
Co     0.00322578    3.38725582    0.03116285       2
Ni     3.57289243   -0.03864386    0.06235214       3
Ni     0.06569929   -3.66227836    0.08545932       4
Co    -0.02138772   -0.03620609    3.61843354       5
Ni     0.04664555   -0.01052201   -3.54306822       6
Cr    -1.71212290   -0.02733817    1.84798553       7
Co    -1.75541264   -0.04956126   -1.81138095       8
Ni     0.04318031    1.76811670    1.92809198       9
Co     0.09362898    1.75255263   -1.80966196      10
Co    -1.70150972   -1.78196702    0.06946361      11
Cr     1.82198579    1.75673326    0.12543392      12
Ni     1.77568807   -1.79383695    0.05933635      13
Ni     0.01859609   -1.81608805    1.83600092      14
Co     0.03128322   -1.74431203   -1.68374458      15
Ni     1.73738041   -0.04466920    1.80203258      16
Cr     1.71180730    0.02219406   -1.64594017      17
Cr    -0.69395618    0.66720380   -0.01516896      18
          18
Lattice="  24.8920   0.0000   0.0000   0.0000  24.8920   0.0000   0.0000   0.0000  24.8920 " ConfE="      -5937.0839" DelE="          0.1374"
Co    -3.53404562   -0.01754983    0.05548766       1
Co     0.07957545    3.51464767    0.06755336       2
Ni     3.58585193   -0.04084200    0.05924970       3
Ni     0.07373216   -3.66297411    0.08416595       4
Co    -0.02358532   -0.03141712    3.60163858       5
Ni     0.04572999   -0.00162093   -3.51195620       6
Cr    -1.70451119   -0.02023723    1.69399478       7
Co    -1.66755284    0.01215600   -1.62168397       8
Ni     0.03696591    1.69203572    1.79458637       9
Co     0.11132166    1.69455269   -1.64739937      10
Co    -1.70261970   -1.75742685    0.08123613      11
Cr     1.83002730    1.74299683    0.10557386      12
Ni     1.78733203   -1.79524724    0.04299901      13
Ni     0.03680627   -1.82146922    1.82853743      14
Co     0.04384897   -1.79407862   -1.71702757      15
Ni     1.78523334   -0.06278804    1.80907390      16
Cr     1.75780630    0.02888318   -1.67590467      17
Cr    -1.66045101    1.69591852   -0.00268135      18
