          18
Lattice="  24.8920   0.0000   0.0000   0.0000  24.8920   0.0000   0.0000   0.0000  24.8920 " ConfE="      -5941.6635" DelE="          0.0000"
Ni    -0.03813258    0.00699378   -3.51145584       1
Ni    -0.09505567   -3.55378762    0.01477767       2
Cr    -0.02400776    3.55642884    0.01632437       3
Cr    -3.57053361    0.05948467    0.05872457       4
Co     3.48461948   -0.01052060    0.00439242       5
Co    -0.04045294   -0.01544480    3.55252176       6
Ni    -1.79512208    0.03792993   -1.76008712       7
Ni     1.69645105    1.80094122   -0.04359899       8
Cr     1.73393572    0.00076490   -1.77608176       9
Co    -1.71637910    1.78783928   -0.00052839      10
Ni    -0.05929419   -1.81051071   -1.76151229      11
Cr     1.76134878   -0.00449952    1.80537421      12
Co    -1.76867517   -0.01168242    1.75675350      13
Cr    -0.02897816    1.78407701    1.80715482      14
Cr    -1.84731535   -1.76148705   -0.00148973      15
Cr     1.77689216   -1.81761235    0.02321906      16
Cr    -0.02802439   -1.77178677    1.78380751      17
Cr     0.00000000    0.00000000    0.00000000      18
          18
Lattice="  24.8920   0.0000   0.0000   0.0000  24.8920   0.0000   0.0000   0.0000  24.8920 " ConfE="      -5940.9257" DelE="          0.7378"
Ni    -0.01332694    0.00133221   -3.46286688       1
Ni    -0.09354970   -3.53736255    0.01382939       2
Cr    -0.01415746    3.51485260    0.07008363       3
Cr    -3.66822846    0.03428661    0.06838573       4
Co     3.56343488   -0.01435032    0.02100031       5
Co    -0.03936930   -0.01415715    3.57375720       6
Ni    -1.95692011   -0.04515634   -1.78603269       7
Ni     1.87635749    1.83477470    0.03393109       8
Cr     1.95125474   -0.03276974   -1.78289716       9
Co    -1.83091585    1.73748308    0.03760090      10
Ni    -0.04378016   -1.72887621   -1.72597493      11
Cr     1.71234815    0.03179116    1.69131220      12
Co    -1.75794038   -0.01801383    1.71771475      13
Cr    -0.03391843    1.68448333    1.76187931      14
Cr    -1.78471513   -1.67853649   -0.00708965      15
Cr     1.71136075   -1.71517860   -0.00095947      16
Cr    -0.04104939   -1.61257891    1.68211411      17
Cr     0.03060069    0.83022173   -0.93740541      18
          18
Lattice="  24.8920   0.0000   0.0000   0.0000  24.8920   0.0000   0.0000   0.0000  24.8920 " ConfE="      -5941.6421" DelE="          0.0214"
Ni    -0.03792973   -0.01871243   -3.53294810       1
Ni    -0.09589287   -3.56219750    0.01741734       2
Cr    -0.03016409    3.58061967    0.06083632       3
Cr    -3.60487500    0.04925321    0.05779715       4
Co     3.52735453   -0.01680762    0.00570896       5
Co    -0.03855006   -0.02446267    3.59069173       6
Ni    -1.81460630   -0.00017269   -1.72879565       7
Ni     1.72825890    1.77699834   -0.00332690       8
Cr     1.72730439   -0.02753515   -1.71426215       9
Co    -1.73494916    1.75166134    0.03756615      10
Ni    -0.06107825   -1.76116519   -1.71874004      11
Cr     1.71127511   -0.00681301    1.72944164      12
Co    -1.72964745   -0.03359098    1.72417869      13
Cr    -0.04487576    1.69533799    1.73189077      14
Cr    -1.83006097   -1.75065007    0.01104983      15
Cr     1.74590335   -1.78565586    0.01253501      16
Cr    -0.04470354   -1.66096358    1.69618751      17
Cr    -0.05341623    1.73335292   -1.69122212      18
