          18
Lattice="  24.8920   0.0000   0.0000   0.0000  24.8920   0.0000   0.0000   0.0000  24.8920 " ConfE="      -5948.6518" DelE="          0.0000"
Ni     0.00232434   -0.00905441    3.49592737       1
Co     0.00926014   -3.45728268    0.01943848       2
Ni    -0.01379578    0.02683885   -3.58935250       3
Ni    -0.01191652    3.57067655   -0.04416498       4
Ni    -3.55301358    0.03494695   -0.04546668       5
Ni     3.53892028    0.04647670   -0.03232914       6
Co    -1.77005576    0.04136230    1.76807257       7
Ni     1.73964513   -0.00576262    1.74533528       8
Co    -1.75119028   -1.76490019    0.02527200       9
Cr     1.75932358   -1.75575695    0.01168023      10
Cr    -0.06264557    1.82960830    1.75471690      11
Ni     0.01140695   -1.73558829   -1.82302259      12
Ni    -0.00891461    1.78402998   -1.79997078      13
Ni    -1.77702858    1.80269291   -0.03251638      14
Ni     1.75596626    1.79614005   -0.04115844      15
Ni    -1.79286110    0.02630439   -1.80311003      16
Co     1.82340493   -0.02101495   -1.79131682      17
Ni     0.00000000    0.00000000    0.00000000      18
          18
Lattice="  24.8920   0.0000   0.0000   0.0000  24.8920   0.0000   0.0000   0.0000  24.8920 " ConfE="      -5948.2738" DelE="          0.3781"
Ni     0.00607682   -0.01130153    3.48199368       1
Co    -0.01240876   -3.43852733    0.00496127       2
Ni    -0.01476432    0.02081825   -3.58960233       3
Ni    -0.01113109    3.57149996   -0.04081868       4
Ni    -3.59340888    0.04289872   -0.05136411       5
Ni     3.57406982    0.06029984   -0.03409127       6
Co    -1.87755680    0.05130511    1.78717396       7
Ni     1.85757350    0.03538536    1.79228865       8
Co    -1.96545874   -1.83167705   -0.08560031       9
Cr     1.93257402   -1.79104171   -0.04975198      10
Cr    -0.04609922    1.76008686    1.71111632      11
Ni     0.00808954   -1.72311890   -1.79409375      12
Ni    -0.00028667    1.74938015   -1.77060016      13
Ni    -1.75704976    1.77054008   -0.02271768      14
Ni     1.74350974    1.76729247   -0.02730057      15
Ni    -1.78190127    0.01732342   -1.77925686      16
Co     1.80894792   -0.03463155   -1.75126870      17
Ni     0.00554729   -0.64872920    0.52612564      18
          18
Lattice="  24.8920   0.0000   0.0000   0.0000  24.8920   0.0000   0.0000   0.0000  24.8920 " ConfE="      -5948.8696" DelE="         -0.2177"
Ni     0.00655635    0.03007710    3.54468051       1
Co     0.00070727   -3.51860389   -0.02422081       2
Ni    -0.01459040    0.02265339   -3.59921588       3
Ni    -0.01459957    3.58307339   -0.04702592       4
Ni    -3.56571778    0.03903101   -0.04982973       5
Ni     3.55608565    0.06151474   -0.02744968       6
Co    -1.75278315    0.06990210    1.73891819       7
Ni     1.74530167    0.04493071    1.73013862       8
Co    -1.76953770   -1.74390234   -0.02872988       9
Cr     1.76977406   -1.71824915   -0.03504007      10
Cr    -0.08670892    1.78894034    1.73093783      11
Ni     0.00861228   -1.71646366   -1.77679007      12
Ni    -0.00255676    1.74875763   -1.77910008      13
Ni    -1.74646905    1.77897466   -0.03867384      14
Ni     1.71376981    1.77384147   -0.02859686      15
Ni    -1.77641992    0.02423448   -1.79251948      16
Co     1.80496729   -0.02992213   -1.75119026      17
Ni     0.00841772   -1.68712194    1.71245723      18
