          18
Lattice="  24.8920   0.0000   0.0000   0.0000  24.8920   0.0000   0.0000   0.0000  24.8920 " ConfE="      -5930.4609" DelE="          0.0000"
Ni    -0.02638590    0.02381737   -3.45672853       1
Cr    -3.54014071   -0.05207348   -0.04536437       2
Co     0.00010205    3.56214464    0.03771573       3
Co    -0.08368273   -3.59535688    0.02476644       4
Co    -0.01248004   -0.00025684    3.60286454       5
Co     3.50932573   -0.00266381    0.05479210       6
Ni    -1.73368847    1.77841414   -0.00500827       7
Co    -1.79255031   -1.80652920    0.02413517       8
Co    -1.78046379    0.02118232   -1.71211895       9
Cr    -0.07101099   -1.83449652   -1.72040156      10
Ni    -0.03720411   -1.80413264    1.80417827      11
Ni     1.75985750   -0.03377776    1.81551680      12
Cr    -1.76292868    0.04259600    1.77589853      13
Cr     1.73880632   -0.00319938   -1.67109123      14
Co     0.01329696    1.74902811    1.84000668      15
Co     1.77411125    1.77746917    0.05477400      16
Cr     1.74432703   -1.82998500    0.02076135      17
Ni     0.00000000    0.00000000    0.00000000      18
          18
Lattice="  24.8920   0.0000   0.0000   0.0000  24.8920   0.0000   0.0000   0.0000  24.8920 " ConfE="      -5929.7609" DelE="          0.7000"
Ni    -0.02533171    0.01431740   -3.44444523       1
Cr    -3.61738387   -0.05386806   -0.02298454       2
Co    -0.01226017    3.53345240    0.02875545       3
Co    -0.09101297   -3.60706465    0.02618725       4
Co    -0.01189854    0.00567475    3.60566998       5
Co     3.54215271   -0.02003599    0.05499083       6
Ni    -1.87233315    1.78722193    0.02847105       7
Co    -1.74681872   -1.74951997    0.00742227       8
Co    -1.96531572   -0.01744680   -1.70730261       9
Cr    -0.06441739   -1.72120688   -1.65581625      10
Ni    -0.04156414   -1.78667478    1.78467778      11
Ni     1.72428708   -0.03532126    1.75883580      12
Cr    -1.72366456    0.05038851    1.71067819      13
Cr     1.93399671   -0.09557706   -1.67330310      14
Co    -0.01594768    1.70366820    1.76337054      15
Co     1.91944829    1.83311807    0.14730226      16
Cr     1.70822036   -1.80387216    0.01773721      17
Ni     0.06798085    1.04294640   -1.10123466      18
          18
Lattice="  24.8920   0.0000   0.0000   0.0000  24.8920   0.0000   0.0000   0.0000  24.8920 " ConfE="      -5930.2433" DelE="          0.2176"
Ni    -0.01869903   -0.01346431   -3.51740090       1
Cr    -3.58503868   -0.05686021   -0.03147568       2
Co    -0.01407942    3.58928581    0.05635300       3
Co    -0.09178574   -3.62194163    0.03129616       4
Co    -0.01706898   -0.00049081    3.61462155       5
Co     3.52756513   -0.00494947    0.06633034       6
Ni    -1.75950154    1.74255687    0.02505838       7
Co    -1.76333498   -1.78263006    0.03111653       8
Co    -1.74765338   -0.02612591   -1.67575329       9
Cr    -0.06919249   -1.76226493   -1.66315889      10
Ni    -0.04394510   -1.78843625    1.78293539      11
Ni     1.72136538   -0.04534091    1.77750868      12
Cr    -1.73625819    0.03369957    1.74914653      13
Cr     1.67108379   -0.03529864   -1.56959417      14
Co    -0.01173824    1.70772492    1.78903529      15
Co     1.76110362    1.74745659    0.07240007      16
Cr     1.71385554   -1.82219346    0.03511512      17
Ni    -0.00794855    1.73149082   -1.71752567      18
