          18
Lattice="  24.8920   0.0000   0.0000   0.0000  24.8920   0.0000   0.0000   0.0000  24.8920 " ConfE="      -5951.2689" DelE="          0.0000"
Ni     0.00920173   -3.55012618    0.02518299       1
Ni    -0.04144106   -0.05726710    3.55193056       2
Ni     3.51582391    0.00490357    0.02866251       3
Co    -3.59767766   -0.02589622    0.01669832       4
Co     0.00346447    3.56097611    0.00970674       5
Co    -0.01926207    0.02017199   -3.56402070       6
Ni     1.74935357   -0.03719664    1.78534689       7
Ni     1.74996569   -1.77442983    0.02468705       8
Ni    -1.74054103   -1.78207151    0.06243616       9
Co    -1.79745170   -0.02117420    1.76634991      10
Ni     0.01554111    1.77308962    1.79705496      11
Co     1.78045943    1.78867656    0.00909440      12
Cr     1.71054999   -0.00626893   -1.80464678      13
Co    -0.01126184   -1.74912087   -1.80447308      14
Cr    -1.71338058   -0.01176344   -1.72165885      15
Cr    -1.73970275    1.71867626    0.01789108      16
Co     0.00108120    1.79939448   -1.75436027      17
Co     0.00000000    0.00000000    0.00000000      18
          18
Lattice="  24.8920   0.0000   0.0000   0.0000  24.8920   0.0000   0.0000   0.0000  24.8920 " ConfE="      -5950.1456" DelE="          1.1233"
Ni     0.01306967   -3.49938718    0.02528877       1
Ni    -0.02716030   -0.05854364    3.51756026       2
Ni     3.57018541    0.02124206    0.01537457       3
Co    -3.65906770   -0.01893879   -0.01107242       4
Co     0.00811053    3.55487486    0.01528782       5
Co    -0.01188626    0.01429820   -3.56349017       6
Ni     1.92503222    0.03652135    1.82649512       7
Ni     1.90487946   -1.79237460   -0.01409311       8
Ni    -1.91483289   -1.81179989   -0.00790057       9
Co    -1.94998164    0.02615893    1.79661671      10
Ni     0.02114382    1.70639624    1.76055315      11
Co     1.77834666    1.75875539    0.00825375      12
Cr     1.67668783   -0.00620139   -1.74401603      13
Co     0.00630878   -1.67491365   -1.69709612      14
Cr    -1.62469120    0.01053913   -1.64458361      15
Cr    -1.72078363    1.67718379    0.03114940      16
Co     0.00578528    1.75596891   -1.70772325      17
Co    -0.00948183   -0.90634566    0.95148044      18
          18
Lattice="  24.8920   0.0000   0.0000   0.0000  24.8920   0.0000   0.0000   0.0000  24.8920 " ConfE="      -5950.8188" DelE="          0.4501"
Ni     0.00722495   -3.57610469   -0.00068574       1
Ni    -0.03780656   -0.02524832    3.58873481       2
Ni     3.52242707    0.00749224    0.02028238       3
Co    -3.60649621   -0.02570531    0.00321827       4
Co     0.00828289    3.57543917    0.00647475       5
Co    -0.01175383    0.02761195   -3.59633249       6
Ni     1.73586359   -0.01506582    1.75948938       7
Ni     1.72782657   -1.74129958    0.00228717       8
Ni    -1.73706205   -1.76040930    0.02592093       9
Co    -1.79033107    0.00192198    1.73759869      10
Ni     0.00863394    1.74161196    1.76253605      11
Co     1.76674925    1.76707960    0.00118356      12
Cr     1.66951524    0.00334339   -1.79220447      13
Co    -0.00376358   -1.68918357   -1.76890163      14
Cr    -1.63520349    0.01463686   -1.68471885      15
Cr    -1.72179333    1.70691035    0.01377933      16
Co     0.00321347    1.75256381   -1.71279891      17
Co    -0.02760934   -1.77600864    1.80201229      18
