          18
Lattice="  24.8920   0.0000   0.0000   0.0000  24.8920   0.0000   0.0000   0.0000  24.8920 " ConfE="      -5938.1063" DelE="          0.0000"
Cr     3.54834067   -0.03667783    0.01592261       1
Ni     0.00287233    3.57826381    0.03017451       2
Ni    -0.04476494   -3.55797388   -0.00907606       3
Ni    -0.05586149    0.02463859   -3.53809339       4
Ni    -0.03935400    0.04299873    3.51800538       5
Co    -1.80139709    1.79810562    0.01221399       6
Ni    -1.81561508    0.02451039   -1.72397050       7
Co    -1.89872868   -0.04754216    1.70761106       8
Cr    -1.86982441   -1.73343802    0.01600540       9
Co     1.80124451    1.78869351    0.01271391      10
Ni     1.73949749    0.00550251   -1.79020907      11
Co     1.81511226   -0.04915259    1.73406709      12
Cr     1.74898884   -1.78479247   -0.00960292      13
Cr    -0.03898876    1.81717533   -1.71796721      14
Ni    -0.01097208    1.79664603    1.76331319      15
Cr    -0.02304566   -1.82814358   -1.80889882      16
Co    -0.02100152   -1.76982931    1.74112101      17
Ni     0.00000000    0.00000000    0.00000000      18
          18
Lattice="  24.8920   0.0000   0.0000   0.0000  24.8920   0.0000   0.0000   0.0000  24.8920 " ConfE="      -5933.4871" DelE="          4.6192"
Cr     3.53458526   -0.04093005    0.01044053       1
Ni     0.00008657    3.59119144    0.03665567       2
Ni     0.10307023   -3.57483704   -0.06694505       3
Ni    -0.04076804    0.02516992   -3.59370187       4
Ni     0.14136159    0.13841878    3.55977828       5
Co    -1.77364175    1.81548463   -0.05777736       6
Ni    -1.78664365    0.08945690   -1.82894083       7
Co    -1.87047788   -0.96410222    3.74602751       8
Cr    -1.17379250   -1.26750726   -0.06858829       9
Co     1.75293610    1.76054284   -0.00993401      10
Ni     1.67478925   -0.01344064   -1.75706243      11
Co     1.72605784   -0.09793842    1.62658463      12
Cr     1.69627744   -1.73240390    0.01221149      13
Cr    -0.03234715    1.78324260   -1.68106050      14
Ni    -0.00695729    1.77519230    1.73776370      15
Cr     0.01836887   -1.87101769   -1.91412251      16
Co    -0.12573594   -1.77923725    1.89928471      17
Ni    -1.83800547    0.12299590    1.66612048      18
          18
Lattice="  24.8920   0.0000   0.0000   0.0000  24.8920   0.0000   0.0000   0.0000  24.8920 " ConfE="      -5937.8859" DelE="          0.2204"
Cr     3.55040038   -0.03634684    0.01133534       1
Ni     0.00416461    3.56422934    0.03356460       2
Ni    -0.05665479   -3.55579957    0.00488812       3
Ni    -0.05112737    0.01116479   -3.54973854       4
Ni    -0.03110182    0.05870834    3.54971153       5
Co    -1.81005257    1.79236576    0.00803296       6
Ni    -1.79764306    0.02549156   -1.73818615       7
Co    -1.82288600   -1.71772013    3.55874706       8
Cr    -0.01147971    0.06882291    0.03658748       9
Co     1.78891619    1.77244903    0.01296287      10
Ni     1.73347357   -0.00254893   -1.79029105      11
Co     1.78545858   -0.02918613    1.73581370      12
Cr     1.70620045   -1.76721634   -0.01236127      13
Cr    -0.02266557    1.80805804   -1.73652257      14
Ni    -0.00600223    1.81878983    1.78838531      15
Cr    -0.01553885   -1.84272794   -1.82089742      16
Co    -0.01027558   -1.75192255    1.75568370      17
Ni    -1.81908455    0.05666633    1.78153601      18
