          18
Lattice="  24.8920   0.0000   0.0000   0.0000  24.8920   0.0000   0.0000   0.0000  24.8920 " ConfE="      -5942.8703" DelE="          0.0000"
Cr    -0.01956336   -0.04668333   -3.45679917       1
Ni     3.56938072   -0.04876489    0.10098273       2
Co    -3.41806995   -0.05920446    0.05641994       3
Ni     0.04135842    3.52101720    0.11009956       4
Co     0.00604874   -3.58460394    0.10965187       5
Cr     0.05084942    0.00012461    3.65650178       6
Ni     0.01259630   -1.81690611   -1.67764061       7
Cr    -0.01827695    1.68657641   -1.69145365       8
Cr    -1.76739970    1.68731118    0.01986500       9
Ni     1.80049077   -1.80987930    0.08896805      10
Cr    -1.73588833   -1.77999902    0.09619729      11
Cr     1.81222210   -0.03372144   -1.67673245      12
Cr     1.82405456    1.73498382    0.08775430      13
Co     1.74383701   -0.00316037    1.82464413      14
Co     0.00048055    1.72772454    1.84494489      15
Cr    -1.66026035   -0.05189763    1.85282459      16
Co    -0.00942490   -1.77076845    1.86528616      17
Co     0.00000000    0.00000000    0.00000000      18
          18
Lattice="  24.8920   0.0000   0.0000   0.0000  24.8920   0.0000   0.0000   0.0000  24.8920 " ConfE="      -5942.3095" DelE="          0.5608"
Cr    -0.06730681   -0.05258791   -3.41878286       1
Ni     3.57389005   -0.05177337    0.08136242       2
Co    -3.43864677   -0.05827782    0.07451579       3
Ni     0.05606759    3.58461529    0.11494476       4
Co     0.02878332   -3.64754199    0.12161839       5
Cr     0.03124677    0.01486198    3.64274513       6
Ni     0.07459771   -1.95549115   -1.69094442       7
Cr     0.03763257    1.79637927   -1.66809064       8
Cr    -1.75862923    1.86404656    0.10974077       9
Ni     1.77618529   -1.80208936    0.08542839      10
Cr    -1.69081397   -1.97681177    0.17280694      11
Cr     1.69300638   -0.05370568   -1.61580373      12
Cr     1.74656971    1.67874301    0.08240456      13
Co     1.71707789    0.00474621    1.76450212      14
Co    -0.00672985    1.69469328    1.76798442      15
Cr    -1.63310641   -0.06759288    1.72701218      16
Co    -0.01911392   -1.75609672    1.82491458      17
Co    -1.10262537   -0.04549904   -0.94084838      18
          18
Lattice="  24.8920   0.0000   0.0000   0.0000  24.8920   0.0000   0.0000   0.0000  24.8920 " ConfE="      -5942.8257" DelE="          0.0446"
Cr     0.03043428   -0.05427906   -3.50699833       1
Ni     3.58483000   -0.04794133    0.09763222       2
Co    -3.49281888   -0.05401303    0.09561737       3
Ni     0.04970522    3.55311990    0.12123465       4
Co     0.01651071   -3.60851071    0.11608091       5
Cr     0.04501657    0.00358111    3.68398729       6
Ni     0.05106761   -1.82103947   -1.64968010       7
Cr     0.02866110    1.68172191   -1.63336650       8
Cr    -1.70715719    1.70173176    0.08460254       9
Ni     1.78756533   -1.79107211    0.09378667      10
Cr    -1.67582797   -1.79376953    0.13469025      11
Cr     1.75989223   -0.03425281   -1.63004107      12
Cr     1.76202512    1.67671064    0.11147800      13
Co     1.71395365    0.01086699    1.77341021      14
Co    -0.00507655    1.69912885    1.81175027      15
Cr    -1.63144716   -0.06702796    1.78765419      16
Co    -0.01975379   -1.75336449    1.84399535      17
Co    -1.65282312   -0.02664439   -1.59227304      18
