          18
Lattice="  24.8920   0.0000   0.0000   0.0000  24.8920   0.0000   0.0000   0.0000  24.8920 " ConfE="      -5943.1669" DelE="          0.0000"
Ni    -0.00946194   -0.01970104    3.51259862       1
Cr     3.51395825    0.01974238   -0.02328906       2
Cr     0.03699205    0.02228055   -3.55054356       3
Co    -3.59602975   -0.02885173   -0.05782707       4
Cr    -0.05544738   -3.60623324   -0.04863775       5
Cr     0.05724237    3.52299178   -0.03411107       6
Ni    -0.02197060   -1.76802713    1.72843590       7
Co     0.07609497    1.75376562    1.78925209       8
Ni     1.76996232   -1.75824370   -0.00233050       9
Ni     1.77071955    1.72239092    0.02566541      10
Ni    -1.81771771   -0.02618262    1.75922229      11
Co     1.78766297    0.01204315   -1.83747173      12
Ni    -1.78430593   -0.00857326   -1.79615547      13
Co    -1.82488099   -1.81196563   -0.01764028      14
Ni    -1.77090906    1.77247384   -0.00960833      15
Ni    -0.00963964   -1.78314198   -1.78022409      16
Co     0.01127009    1.78745692   -1.82463859      17
Ni     0.00000000    0.00000000    0.00000000      18
          18
Lattice="  24.8920   0.0000   0.0000   0.0000  24.8920   0.0000   0.0000   0.0000  24.8920 " ConfE="      -5942.4993" DelE="          0.6676"
Ni     0.01186568   -0.02261258    3.48633864       1
Cr     3.39074495    0.02805955   -0.02324238       2
Cr     0.03859993    0.01439687   -3.57442052       3
Co    -3.57656967   -0.02571376   -0.04564481       4
Cr    -0.06824730   -3.67182852   -0.05236521       5
Cr     0.04375914    3.60584647   -0.05494911       6
Ni    -0.05250968   -1.88590266    1.76202170       7
Co     0.05705031    1.90255853    1.83723046       8
Ni     1.78606100   -1.93260376   -0.04866969       9
Ni     1.77794545    1.92203959   -0.06542077      10
Ni    -1.72812148   -0.01359438    1.72749381      11
Co     1.75247427    0.01611876   -1.79915963      12
Ni    -1.73202344   -0.00576155   -1.76299124      13
Co    -1.79579939   -1.81207606   -0.00456557      14
Ni    -1.68042884    1.76236457    0.00069416      15
Ni    -0.00266394   -1.77863902   -1.74902150      16
Co     0.01378410    1.80155274   -1.83338308      17
Ni     0.63502193    0.01909653    0.57091437      18
          18
Lattice="  24.8920   0.0000   0.0000   0.0000  24.8920   0.0000   0.0000   0.0000  24.8920 " ConfE="      -5943.6167" DelE="         -0.4498"
Ni    -0.02487232   -0.02425052    3.53222705       1
Cr     3.55527125    0.02780012   -0.06750545       2
Cr     0.03622548    0.01636538   -3.55934739       3
Co    -3.60621819   -0.02560845   -0.05372096       4
Cr    -0.05830569   -3.65039411   -0.06072657       5
Cr     0.04845827    3.56807485   -0.04823420       6
Ni    -0.03580704   -1.76880072    1.68045481       7
Co     0.02716477    1.77378928    1.74112310       8
Ni     1.75306948   -1.77743455   -0.04137610       9
Ni     1.72862812    1.73829564   -0.02078518      10
Ni    -1.77034325   -0.01755554    1.72652826      11
Co     1.76380785    0.01118727   -1.80099022      12
Ni    -1.75642747   -0.00537598   -1.76595296      13
Co    -1.82336808   -1.80805725   -0.02164950      14
Ni    -1.73959589    1.76185310   -0.01907904      15
Ni    -0.02037113   -1.76160351   -1.74922805      16
Co     0.00172377    1.77821512   -1.82077723      17
Ni     1.75432796   -0.01976478    1.72011435      18
