          18
Lattice="  24.8920   0.0000   0.0000   0.0000  24.8920   0.0000   0.0000   0.0000  24.8920 " ConfE="      -5936.8642" DelE="          0.0000"
Ni     0.00589457   -3.48289412   -0.00301221       1
Ni    -0.03882615   -0.04162399   -3.44749594       2
Ni    -3.57523485   -0.00403709    0.04175424       3
Co     3.52316704    0.01208571   -0.00747525       4
Cr     0.00412648    0.03134670    3.61592718       5
Co    -0.00067577    3.52909831    0.03932175       6
Ni     1.74335923   -1.76454018    0.00342530       7
Co    -1.73983016   -1.69910929   -0.02886333       8
Cr    -1.73141933   -0.06058410   -1.66748107       9
Co     1.71632136   -0.04483987   -1.74818799      10
Co    -1.77421411    0.02590660    1.81594584      11
Co    -1.77107369    1.75302991    0.01921030      12
Co    -0.01726385   -1.72640688    1.84554963      13
Cr     0.02651421    1.80345632   -1.69271956      14
Co     1.75586772   -0.00251351    1.82021091      15
Cr     1.78930180    1.73888077    0.03750140      16
Co    -0.00901038    1.76986358    1.80848793      17
Cr     0.00000000    0.00000000    0.00000000      18
          18
Lattice="  24.8920   0.0000   0.0000   0.0000  24.8920   0.0000   0.0000   0.0000  24.8920 " ConfE="      -5935.9476" DelE="          0.9166"
Ni     0.01241567   -3.47166133    0.02128681       1
Ni    -0.03509519   -0.02905472   -3.42521715       2
Ni    -3.62085326    0.00229989    0.05178750       3
Co     3.59588216    0.01931475   -0.00715937       4
Cr     0.00561534    0.00826760    3.58572406       5
Co     0.00159003    3.54051798    0.03113561       6
Ni     1.88728306   -1.78374057    0.07170465       7
Co    -1.88336160   -1.75444427    0.06352726       8
Cr    -1.88761178    0.00614846   -1.71226139       9
Co     1.84454505   -0.01992205   -1.76632545      10
Co    -1.76935172    0.01931654    1.79139898      11
Co    -1.71177585    1.67890473   -0.01185043      12
Co    -0.02383808   -1.69414375    1.76778214      13
Cr     0.01679978    1.73975618   -1.65094425      14
Co     1.73343658   -0.00560278    1.76792731      15
Cr     1.69851476    1.61618667    0.02274104      16
Co    -0.01224275    1.73500370    1.76880819      17
Cr    -0.03328167   -1.00960450   -0.91352699      18
          18
Lattice="  24.8920   0.0000   0.0000   0.0000  24.8920   0.0000   0.0000   0.0000  24.8920 " ConfE="      -5936.4973" DelE="          0.3669"
Ni    -0.00358552   -3.53168391    0.04711001       1
Ni    -0.02685870   -0.01517373   -3.50472860       2
Ni    -3.59724078   -0.00481621    0.05092683       3
Co     3.55681471    0.01580945    0.00092897       4
Cr     0.00384905    0.01798540    3.61134251       5
Co     0.00665577    3.56397441    0.03877786       6
Ni     1.74461311   -1.73300435    0.05724490       7
Co    -1.74247400   -1.69314409    0.00362045       8
Cr    -1.71377208   -0.03193180   -1.61518640       9
Co     1.71956214   -0.02102829   -1.71981464      10
Co    -1.76893734    0.03222053    1.81737845      11
Co    -1.71975692    1.71063794    0.01733713      12
Co    -0.02665433   -1.70688730    1.81831022      13
Cr     0.04507087    1.66231013   -1.60472640      14
Co     1.73289652    0.01702017    1.80776866      15
Cr     1.76115188    1.72186444    0.07465601      16
Co    -0.00647845    1.74527324    1.77765955      17
Cr     0.00931270   -1.72427055   -1.65952092      18
