          18
Lattice="  24.8920   0.0000   0.0000   0.0000  24.8920   0.0000   0.0000   0.0000  24.8920 " ConfE="      -5924.1083" DelE="          0.0000"
Ni    -3.47581197    0.01102426   -0.02386668       1
Ni     0.00484031   -0.00716886   -3.47496429       2
Cr     3.55589806    0.09134652    0.01395582       3
Ni     0.02452532    0.04449129    3.58840775       4
Co     0.06409944   -3.56340245    0.03533321       5
Cr    -0.00728930    3.55088595    0.00976489       6
Ni    -1.72953562   -1.75156246   -0.00473746       7
Ni    -1.75467886    1.76159926    0.02730671       8
Cr     0.04733976   -1.76964764   -1.73914656       9
Co    -0.07834594    1.77733437   -1.74393575      10
Ni    -1.75315291    0.00997842    1.83301437      11
Co     1.79784027    0.01627739   -1.75233323      12
Co     1.79757915    0.07631808    1.81428211      13
Ni     0.02346525   -1.73800716    1.79141834      14
Cr    -0.00075046    1.81527547    1.82120426      15
Ni     1.79736394   -1.73953467    0.02788521      16
Ni     1.75003388    1.78087082    0.01579750      17
Ni     0.00000000    0.00000000    0.00000000      18
          18
Lattice="  24.8920   0.0000   0.0000   0.0000  24.8920   0.0000   0.0000   0.0000  24.8920 " ConfE="      -5923.4512" DelE="          0.6571"
Ni    -3.42702731    0.00778154   -0.02943412       1
Ni    -0.02392576    0.00129384   -3.42861191       2
Cr     3.55849628    0.12524997    0.00168584       3
Ni     0.01347125    0.03530616    3.58901896       4
Co     0.06430783   -3.59716046    0.04427952       5
Cr     0.02026104    3.64640121    0.04530186       6
Ni    -1.77292148   -1.88830323    0.05514724       7
Ni    -1.74687607    1.88564475    0.07803714       8
Cr     0.08779657   -1.95435033   -1.77159425       9
Co    -0.05119803    2.00456107   -1.79297073      10
Ni    -1.70274629    0.00535915    1.76302629      11
Co     1.74229775    0.02551673   -1.73533422      12
Co     1.74360762    0.08771001    1.77409077      13
Ni     0.02354693   -1.73424833    1.75863958      14
Cr     0.00752427    1.80886342    1.81545431      15
Ni     1.76254024   -1.71344387    0.01561775      16
Ni     1.67900754    1.76677791   -0.00378525      17
Ni    -0.64604574   -0.02369278   -0.76063910      18
          18
Lattice="  24.8920   0.0000   0.0000   0.0000  24.8920   0.0000   0.0000   0.0000  24.8920 " ConfE="      -5924.2837" DelE="         -0.1754"
Ni    -3.50136221   -0.00023046    0.02924668       1
Ni     0.02657138    0.00093904   -3.53427422       2
Cr     3.55390906    0.12456876    0.01067472       3
Ni     0.02480490    0.03948602    3.61915346       4
Co     0.07416250   -3.58723260    0.04504822       5
Cr     0.00097379    3.60512181    0.03752568       6
Ni    -1.67872944   -1.74501982    0.02786444       7
Ni    -1.69744609    1.75008480    0.06848394       8
Cr     0.07971824   -1.76225646   -1.72442140       9
Co    -0.04429146    1.80811987   -1.73758104      10
Ni    -1.70990181    0.01175598    1.81451929      11
Co     1.71184179    0.00749671   -1.72630703      12
Co     1.75519942    0.09170229    1.80361788      13
Ni     0.03800600   -1.71090243    1.77241041      14
Cr     0.01809584    1.80319902    1.84517781      15
Ni     1.77006580   -1.70102384    0.02991997      16
Ni     1.69126292    1.75772631    0.02233136      17
Ni    -1.70312947   -0.00837677   -1.72496170      18
