          18
Lattice="  24.8920   0.0000   0.0000   0.0000  24.8920   0.0000   0.0000   0.0000  24.8920 " ConfE="      -5933.9375" DelE="          0.0000"
Ni    -0.01444584   -3.48578137    0.03138716       1
Co     3.37588692    0.05094769   -0.03057079       2
Ni    -0.04023760    3.59737125   -0.00096354       3
Ni    -3.61445901    0.01561805    0.00954090       4
Cr    -0.03507420   -0.01064354    3.54547675       5
Co    -0.06454171    0.05600378   -3.54681235       6
Ni    -0.01784434   -1.75791919    1.78044206       7
Co    -0.01533512   -1.70817798   -1.75805687       8
Co     1.68506741    0.08077166    1.78438561       9
Cr     1.75344232    0.07800384   -1.75138870      10
Ni    -1.84366285   -1.75615925    0.01783808      11
Cr     1.76872710    1.85415721   -0.03341006      12
Cr    -1.88545331    1.83548031    0.01572964      13
Ni    -1.82441188    0.02905555    1.78312870      14
Ni    -1.83520953    0.02528629   -1.74126018      15
Ni    -0.07928467    1.81395731    1.75024917      16
Ni    -0.07096824    1.80169365   -1.73961133      17
Ni     0.00000000    0.00000000    0.00000000      18
          18
Lattice="  24.8920   0.0000   0.0000   0.0000  24.8920   0.0000   0.0000   0.0000  24.8920 " ConfE="      -5933.4398" DelE="          0.4976"
Ni    -0.01956082   -3.48669613    0.01923035       1
Co     3.35390006    0.07486967   -0.00930964       2
Ni    -0.03757987    3.59876019    0.00182054       3
Ni    -3.61607544    0.00799821    0.01565826       4
Cr    -0.05395790   -0.00578765    3.58701914       5
Co    -0.08513141    0.05486879   -3.56818799       6
Ni    -0.03350460   -1.75673399    1.82885937       7
Co    -0.07284835   -1.73612085   -1.86633845       8
Co     1.70201009    0.16310068    2.01527504       9
Cr     1.79117210    0.13830632   -2.02784848      10
Ni    -1.78664860   -1.72356360    0.01171856      11
Cr     1.76433728    1.84287332   -0.00368655      12
Cr    -1.85049423    1.79915433    0.02603757      13
Ni    -1.81363394    0.02988777    1.78325580      14
Ni    -1.83995689    0.02260210   -1.74255108      15
Ni    -0.07627832    1.79620811    1.74140025      16
Ni    -0.05500264    1.74025321   -1.69047407      17
Ni     0.79017570   -0.50362265   -0.06215044      18
          18
Lattice="  24.8920   0.0000   0.0000   0.0000  24.8920   0.0000   0.0000   0.0000  24.8920 " ConfE="      -5933.9256" DelE="          0.0119"
Ni    -0.04747269   -3.51686539    0.01906910       1
Co     3.49760901    0.07533444   -0.01994230       2
Ni    -0.04399282    3.60915159   -0.00024304       3
Ni    -3.63760186    0.01648881    0.01282806       4
Cr    -0.06836565   -0.00573138    3.57276081       5
Co    -0.07858517    0.06815577   -3.56208826       6
Ni    -0.05846307   -1.73575689    1.77399793       7
Co    -0.05704730   -1.66705959   -1.75656339       8
Co     1.65098539    0.10075676    1.71646643       9
Cr     1.71991711    0.10224269   -1.74160155      10
Ni    -1.82059676   -1.73496548    0.01612623      11
Cr     1.74248809    1.77738417   -0.00386686      12
Cr    -1.90788905    1.84567903    0.02752369      13
Ni    -1.81901115    0.03437526    1.75838698      14
Ni    -1.82661444    0.03866227   -1.70573536      15
Ni    -0.10510711    1.79110539    1.71233923      16
Ni    -0.07791495    1.76047651   -1.67883475      17
Ni     1.68483902   -1.65003347   -0.02793607      18
