          18
Lattice="  24.8920   0.0000   0.0000   0.0000  24.8920   0.0000   0.0000   0.0000  24.8920 " ConfE="      -5949.7041" DelE="          0.0000"
Cr    -0.05181488    3.50628860    0.05374916       1
Ni     0.04060420   -0.03950190   -3.61674490       2
Co     0.01088872   -0.01098126    3.44978315       3
Co     3.52372169    0.01412097   -0.01926909       4
Cr     0.00571490   -3.55732152    0.00500750       5
Co    -3.51168020   -0.00039667   -0.04442432       6
Ni     1.73914384    1.75574130   -0.02973129       7
Ni     0.01611893    1.77243910   -1.83767091       8
Ni     1.77066442   -0.02703216   -1.81065784       9
Cr     1.69999279    0.08711663    1.82402939      10
Ni    -1.74132518   -0.04284415   -1.80935090      11
Co    -1.74971691    1.79242459   -0.02693103      12
Co    -1.73123698    0.00327721    1.71989971      13
Cr     0.02729751   -1.82630812   -1.80329221      14
Co    -0.00125931   -1.83876059    1.71458528      15
Co     1.76386884   -1.76938816    0.02596302      16
Cr    -1.75835762   -1.80228450    0.03210680      17
Ni     0.00000000    0.00000000    0.00000000      18
          18
Lattice="  24.8920   0.0000   0.0000   0.0000  24.8920   0.0000   0.0000   0.0000  24.8920 " ConfE="      -5945.5043" DelE="          4.1998"
Cr    -0.06959088    3.57548840    0.01602215       1
Ni     0.03542007   -0.04567046   -3.66572136       2
Co    -0.08642901   -0.10108442    3.67575280       3
Co     3.52107915   -0.09253525   -0.08440243       4
Cr    -0.01341155   -3.61270639   -0.00979315       5
Co    -3.47850931    0.02385663   -0.04997514       6
Ni     1.25899093    1.64695682   -0.06948052       7
Ni    -0.02863304    1.81719956   -1.99196276       8
Ni     1.74076719   -0.00387646   -1.81915248       9
Cr     3.07086403    0.98790204    2.15273797      10
Ni    -1.67159264   -0.03390638   -1.77738767      11
Co    -1.56180382    1.75591374   -0.00718046      12
Co    -1.63433486   -0.02254515    1.65467809      13
Cr     0.03152821   -1.81541008   -1.78187904      14
Co    -0.06612553   -1.97208677    1.76169483      15
Co     1.66746679   -1.73941097    0.03045767      16
Cr    -1.63292308   -1.71986387    0.04919245      17
Ni     0.98072962    0.12259777    1.59482372      18
          18
Lattice="  24.8920   0.0000   0.0000   0.0000  24.8920   0.0000   0.0000   0.0000  24.8920 " ConfE="      -5949.4644" DelE="          0.2397"
Cr     0.01886815    3.54572292   -0.00590185       1
Ni     0.04275734   -0.04437507   -3.63098780       2
Co    -0.00403934   -0.04568950    3.52008300       3
Co     3.56531170    0.02703437   -0.03762380       4
Cr    -0.00583478   -3.60401913    0.00006737       5
Co    -3.54196483   -0.01516517   -0.05642003       6
Ni     0.00742714    1.71124339    1.69051832       7
Ni     0.02206677    1.74081144   -1.78740137       8
Ni     1.75354593   -0.02921094   -1.79244914       9
Cr     3.56480856    1.70111994    1.75987018      10
Ni    -1.69322025   -0.06190079   -1.76269676      11
Co    -1.78381792    1.76115675   -0.06258012      12
Co    -1.73471903   -0.04603302    1.64483104      13
Cr     0.03397126   -1.81496685   -1.77123607      14
Co    -0.01379323   -1.78111133    1.65749117      15
Co     1.71485005   -1.77037269   -0.02845879      16
Cr    -1.69033183   -1.77519397    0.02948518      17
Ni     1.76898286   -0.01023712    1.70248931      18
