          18
Lattice="  24.8920   0.0000   0.0000   0.0000  24.8920   0.0000   0.0000   0.0000  24.8920 " ConfE="      -5939.5881" DelE="          0.0000"
Ni    -0.01630428    3.50434848    0.01895571       1
Ni     3.48821089    0.00142975    0.02274936       2
Co    -0.07326282   -0.00919863    3.52976505       3
Cr    -3.59011723   -0.00113014   -0.01782015       4
Co    -0.04380801   -3.52554290    0.01728761       5
Cr     0.01512109   -0.00583027   -3.48038239       6
Ni     0.01683906    1.75526657    1.76311903       7
Cr     1.71497612   -0.02287688    1.71590852       8
Co     0.01200735    1.74094443   -1.74027655       9
Cr     1.75836192    0.05268805   -1.70125939      10
Cr    -1.82334073    1.70262021    0.00440771      11
Co     1.73567807   -1.80286686    0.01722947      12
Co    -1.80907163   -0.01317260    1.77920546      13
Cr    -0.00297812   -1.74955681    1.79006429      14
Co    -1.79561981   -1.75811445    0.01583907      15
Co    -1.79218901   -0.02304310   -1.76940180      16
Cr    -0.01647094   -1.76390970   -1.75206417      17
Co     0.00000000    0.00000000    0.00000000      18
          18
Lattice="  24.8920   0.0000   0.0000   0.0000  24.8920   0.0000   0.0000   0.0000  24.8920 " ConfE="      -5938.4706" DelE="          1.1175"
Ni    -0.01991658    3.45134732    0.02525815       1
Ni     3.42493108    0.00703711    0.01962699       2
Co    -0.08168311   -0.01870936    3.62951851       3
Cr    -3.49792047   -0.04473035   -0.00860883       4
Co    -0.07053330   -3.48470274    0.01629054       5
Cr    -0.01397798    0.00450951   -3.58875837       6
Ni    -0.04994301    1.74975777    1.89724535       7
Cr     1.71410042   -0.10312429    1.91415823       8
Co    -0.05272597    1.76853842   -1.88818338       9
Cr     1.81261298   -0.05857214   -1.92986518      10
Cr    -1.70028038    1.54473455    0.00709908      11
Co     1.65799780   -1.74722606    0.02183853      12
Co    -1.84242010    0.00620276    1.95084804      13
Cr     0.03136325   -1.74994500    1.92573246      14
Co    -1.03742448   -1.13072163    0.05928804      15
Co    -1.79762139   -0.00700926   -1.88057913      16
Cr     0.01502944   -1.72542076   -1.84317211      17
Co     0.83154995    0.66613536   -0.02903828      18
          18
Lattice="  24.8920   0.0000   0.0000   0.0000  24.8920   0.0000   0.0000   0.0000  24.8920 " ConfE="      -5939.4723" DelE="          0.1158"
Ni    -0.03284649    3.52466227    0.02609088       1
Ni     3.52150282   -0.04669935    0.03067800       2
Co    -0.09161924   -0.02519543    3.53350186       3
Cr    -3.55929967    0.00000048   -0.01494339       4
Co    -0.08759399   -3.47089245    0.00722663       5
Cr    -0.00687310   -0.02791600   -3.47919026       6
Ni    -0.02780266    1.74742829    1.79529117       7
Cr     1.68678738   -0.08463205    1.76290882       8
Co    -0.03321909    1.72445514   -1.75456381       9
Cr     1.75067753   -0.05402573   -1.75185015      10
Cr    -1.79583137    1.72703324    0.00067310      11
Co     1.75070691   -1.79759023    0.01732318      12
Co    -1.81362548   -0.06793094    1.74935475      13
Cr    -0.02934881   -1.77719951    1.76105885      14
Co    -0.08608900   -0.08389916    0.00522777      15
Co    -1.80030240   -0.06988380   -1.73961288      16
Cr    -0.06497196   -1.79039228   -1.73643254      17
Co     1.74238272    1.69604495    0.01201466      18
