          18
Lattice="  24.8920   0.0000   0.0000   0.0000  24.8920   0.0000   0.0000   0.0000  24.8920 " ConfE="      -5927.7338" DelE="          0.0000"
Cr     0.05646911   -3.57952237   -0.04932178       1
Co     0.00781213    0.00198339   -3.46442294       2
Ni    -0.00621898    3.62204787    0.03720045       3
Cr     3.50484569    0.04354967    0.03505787       4
Cr    -3.54740997    0.04008812    0.04143108       5
Cr     0.01594128    0.01276268    3.60341959       6
Ni     1.74209557   -1.75509180   -0.01973394       7
Ni    -0.02612243    1.84814669   -1.74300538       8
Cr     1.70199378    0.01514719   -1.75713176       9
Co    -1.78078059    0.00654854   -1.72718105      10
Cr    -1.50065066   -1.80920136   -0.28793414      11
Co     0.01680897   -1.78142889    1.80568271      12
Co     1.76330647    1.79854211    0.02692810      13
Cr    -1.76119409    1.79815363    0.04422122      14
Co    -0.00952523    1.82648960    1.80227437      15
Cr     1.73082878    0.02170657    1.82130890      16
Cr    -1.71956347   -0.04045820    1.76996011      17
Co     0.00000000    0.00000000    0.00000000      18
          18
Lattice="  24.8920   0.0000   0.0000   0.0000  24.8920   0.0000   0.0000   0.0000  24.8920 " ConfE="      -5927.0057" DelE="          0.7280"
Cr     0.00101702   -3.55419267   -0.06444805       1
Co    -0.01867822   -0.01692699   -3.41102801       2
Ni    -0.00510255    3.65063433    0.03201541       3
Cr     3.58821273    0.06184997    0.08235874       4
Cr    -3.60729804    0.10294473    0.09586620       5
Cr     0.00454750   -0.00919046    3.56977569       6
Ni     1.93223288   -1.83098628    0.07802333       7
Ni    -0.03654409    1.79365462   -1.69986559       8
Cr     1.76070111    0.03424567   -1.59026760       9
Co    -1.95279832    0.08741218   -1.69990617      10
Cr    -1.98621713   -1.85700265   -0.01608179      11
Co    -0.01161597   -1.78851807    1.69761265      12
Co     1.73387548    1.77573242    0.03520049      13
Cr    -1.75030961    1.82264183    0.01021246      14
Co    -0.00983964    1.86583600    1.78997693      15
Cr     1.59849150    0.03978878    1.65773619      16
Cr    -1.51661740    0.03442140    1.56417819      17
Co    -0.09562947   -1.08299349   -0.93082604      18
          18
Lattice="  24.8920   0.0000   0.0000   0.0000  24.8920   0.0000   0.0000   0.0000  24.8920 " ConfE="      -5927.6073" DelE="          0.1265"
Cr     0.00643875   -3.61091077   -0.00369940       1
Co     0.00874635    0.03559741   -3.51166269       2
Ni    -0.00808382    3.64708847    0.03404200       3
Cr     3.53216278    0.03420627    0.05534347       4
Cr    -3.57841864    0.05108280    0.05837295       5
Cr     0.01858233    0.01975220    3.63909271       6
Ni     1.73716782   -1.75642808    0.03537896       7
Ni    -0.03207678    1.81462622   -1.71796834       8
Cr     1.65805890    0.04034735   -1.60794430       9
Co    -1.76235918    0.01994938   -1.65109354      10
Cr    -1.68917156   -1.77057393   -0.02455093      11
Co     0.00452623   -1.78004718    1.79977125      12
Co     1.72804134    1.77432784    0.03393496      13
Cr    -1.75293860    1.80624184    0.02333763      14
Co    -0.00674889    1.85664955    1.79960672      15
Cr     1.61452571    0.05558632    1.72796879      16
Cr    -1.52745127    0.04813678    1.65167079      17
Co    -0.02781812   -1.75090817   -1.71553256      18
