          18
Lattice="  24.8920   0.0000   0.0000   0.0000  24.8920   0.0000   0.0000   0.0000  24.8920 " ConfE="      -5938.3763" DelE="          0.0000"
Cr     0.06688080    0.03274325    3.46214575       1
Ni    -0.03326970    3.56841149   -0.05947081       2
Ni    -0.02215081    0.00463899   -3.57141810       3
Co     0.04761304   -3.60107109   -0.06891680       4
Co    -3.55575032   -0.01875307   -0.00105178       5
Cr     3.43931478    0.01544618   -0.01044045       6
Ni    -1.72834327   -0.02185190    1.75851503       7
Ni    -0.02464443    1.80067968   -1.81503109       8
Ni    -1.77718649    1.78561486   -0.01703632       9
Co    -1.69954281   -1.78473201   -0.02944308      10
Ni    -1.76699644    0.00358356   -1.77103883      11
Ni     1.73491413    1.79112524   -0.04297849      12
Co     1.67869423   -0.02500166    1.77025453      13
Co     1.72367027   -1.77802979    0.00208708      14
Cr    -0.00981379    1.80491861    1.80023201      15
Cr     0.00662780   -1.79429389   -1.77761964      16
Cr     1.75872813   -0.00053519   -1.83255848      17
Ni     0.00000000    0.00000000    0.00000000      18
          18
Lattice="  24.8920   0.0000   0.0000   0.0000  24.8920   0.0000   0.0000   0.0000  24.8920 " ConfE="      -5937.1070" DelE="          1.2693"
Cr     0.05327034    0.03850635    3.43978015       1
Ni    -0.03014822    3.59788551   -0.04252024       2
Ni    -0.02355955    0.01079485   -3.53463064       3
Co     0.02068655   -3.60019255   -0.00789665       4
Co    -3.54621383   -0.01840613   -0.06512703       5
Cr     3.51639607    0.03898348   -0.08875813       6
Ni    -1.91646324    0.04573634    1.79211847       7
Ni     0.01089639    1.94267409   -1.84502435       8
Ni    -1.77750832    1.80876107   -0.01250529       9
Co    -1.87360570   -1.89340081   -0.01694059      10
Ni    -1.01663199   -0.08032398   -1.25320252      11
Ni     1.70266715    1.75855144   -0.07130183      12
Co     1.95683622    0.03591910    1.67394567      13
Co     1.85156901   -1.82767926   -0.09193116      14
Cr    -0.02583507    1.64053531    1.68449622      15
Cr     0.08109128   -2.03040749   -1.69503261      16
Cr     1.68730403   -0.01140123   -1.76420717      17
Ni    -0.00925095   -1.06276442    1.11091134      18
          18
Lattice="  24.8920   0.0000   0.0000   0.0000  24.8920   0.0000   0.0000   0.0000  24.8920 " ConfE="      -5938.2679" DelE="          0.1084"
Cr     0.05548065    0.05757754    3.52312509       1
Ni    -0.02790309    3.57350460   -0.05921226       2
Ni    -0.02564866    0.00232785   -3.58906005       3
Co     0.04367673   -3.63483260   -0.07460830       4
Co    -3.58243672   -0.01396534   -0.00868084       5
Cr     3.49117287    0.03829669   -0.04485164       6
Ni    -1.73975971    0.00722959    1.73115568       7
Ni    -0.01692807    1.77089784   -1.79586448       8
Ni    -1.74437119    1.75960361   -0.01030177       9
Co    -1.69873438   -1.75077203   -0.06813361      10
Ni    -1.74104511    0.00846743   -1.74911279      11
Ni     1.71539355    1.76249603   -0.06600909      12
Co     1.66549475    0.03975960    1.68496477      13
Co     1.69301343   -1.71387812   -0.07048927      14
Cr     0.00754418    1.72667161    1.76275393      15
Cr    -0.00899958   -1.74894815   -1.70918993      16
Cr     1.73195459   -0.00785635   -1.82640293      17
Ni    -0.02617999   -1.74360318    1.72676608      18
