          18
Lattice="  24.8920   0.0000   0.0000   0.0000  24.8920   0.0000   0.0000   0.0000  24.8920 " ConfE="      -5937.8689" DelE="          0.0000"
Ni     0.06308359   -3.54462691   -0.03912638       1
Ni     0.01803219   -0.03542047   -3.52722356       2
Co     0.01903240    3.52849923    0.01911632       3
Ni     0.03965545   -0.01771556    3.54494682       4
Cr    -3.50467585   -0.02855177   -0.03871433       5
Ni     3.59122470   -0.02311094    0.01631925       6
Ni    -1.70774987   -1.80747455   -0.04153597       7
Ni     1.80012356   -1.79766241   -0.00652700       8
Ni    -1.70915835   -0.05940732   -1.79133263       9
Ni     1.77187606   -0.05207575   -1.75552975      10
Co     0.02528608   -1.83257778    1.81103591      11
Cr     0.02856613    1.77321453   -1.71257327      12
Cr     0.05070296    1.73595600    1.71881475      13
Ni    -1.74312078   -0.03353949    1.78751567      14
Ni     1.82299731   -0.04498394    1.79482464      15
Cr    -1.74476661    1.74450723   -0.00735638      16
Co     1.74181156    1.74475071    0.04216579      17
Co     0.00000000    0.00000000    0.00000000      18
          18
Lattice="  24.8920   0.0000   0.0000   0.0000  24.8920   0.0000   0.0000   0.0000  24.8920 " ConfE="      -5936.6936" DelE="          1.1753"
Ni     0.05380272   -3.48535886   -0.02663081       1
Ni     0.01362605   -0.02990113   -3.47667747       2
Co     0.02352889    3.50211398    0.01783212       3
Ni     0.03839794   -0.00355788    3.52598469       4
Cr    -3.64387450   -0.03298569   -0.01859337       5
Ni     3.66739637   -0.01960346    0.03405195       6
Ni    -1.86903829   -1.82287313    0.01633946       7
Ni     1.95264618   -1.81781428    0.05673870       8
Ni    -1.89979398   -0.01069733   -1.79094901       9
Ni     1.98051854    0.00119937   -1.77568767      10
Co     0.02765606   -1.77617980    1.73962113      11
Cr     0.04763971    1.62136159   -1.59624696      12
Cr     0.05513679    1.59653682    1.53680657      13
Ni    -1.75262121   -0.04835700    1.74293081      14
Ni     1.84311778   -0.05600447    1.77627160      15
Cr    -1.75172425    1.67313879   -0.01505186      16
Co     1.75852645    1.69306256    0.02210003      17
Co     0.05759188   -0.99899003   -1.04371349      18
          18
Lattice="  24.8920   0.0000   0.0000   0.0000  24.8920   0.0000   0.0000   0.0000  24.8920 " ConfE="      -5937.8487" DelE="          0.0203"
Ni     0.06639746   -3.58502660    0.01034280       1
Ni     0.01972763   -0.00415731   -3.55374137       2
Co     0.01567762    3.55545098    0.02751925       3
Ni     0.04105495   -0.01389237    3.55037793       4
Cr    -3.55605276   -0.04018554   -0.03486555       5
Ni     3.60661610   -0.02484167    0.02317196       6
Ni    -1.70527544   -1.78641739   -0.00136685       7
Ni     1.80186459   -1.78565323    0.02712191       8
Ni    -1.68872495   -0.02200205   -1.72810599       9
Ni     1.77286113   -0.03261901   -1.73293948      10
Co     0.03173492   -1.82238942    1.79752771      11
Cr     0.03263018    1.72336794   -1.63869225      12
Cr     0.04824385    1.69587493    1.65546924      13
Ni    -1.71150510   -0.02850793    1.75547285      14
Ni     1.81252208   -0.04904129    1.79206506      15
Cr    -1.73792852    1.74233231    0.01541385      16
Co     1.68381397    1.70367601    0.04166068      17
Co     0.04568928   -1.81312954   -1.77627072      18
