          18
Lattice="  24.8920   0.0000   0.0000   0.0000  24.8920   0.0000   0.0000   0.0000  24.8920 " ConfE="      -5932.5620" DelE="          0.0000"
Cr     0.01735534    3.45834528   -0.07144914       1
Co     3.54570437   -0.02354410    0.03745254       2
Ni    -0.00844181   -3.61046461    0.00575814       3
Ni    -3.58836834   -0.04472902   -0.04219480       4
Co    -0.00489247   -0.02966720    3.52969473       5
Co    -0.00376253   -0.07347962   -3.57010281       6
Ni     0.00154628    1.73451385    1.72960234       7
Ni     1.76526227   -1.83361203    0.01954418       8
Cr     1.77648424    0.04230444    1.70210509       9
Cr     1.78990957    0.00193098   -1.71085831      10
Cr     0.00012166    1.66413696   -1.77570474      11
Co    -1.80939534    1.72793232   -0.04575726      12
Co    -1.75967259   -1.81237633   -0.00614440      13
Cr    -1.83698593   -0.05362054    1.76479966      14
Cr    -0.04335142   -1.78446054    1.77485378      15
Cr     0.00349017   -1.76030926   -1.74719509      16
Cr    -1.80182129   -0.06204425   -1.80797408      17
Co     0.00000000    0.00000000    0.00000000      18
          18
Lattice="  24.8920   0.0000   0.0000   0.0000  24.8920   0.0000   0.0000   0.0000  24.8920 " ConfE="      -5931.3287" DelE="          1.2333"
Cr     0.01205523    3.34568697   -0.05880528       1
Co     3.48530926    0.00016044    0.04891325       2
Ni    -0.02596044   -3.53693480    0.00186923       3
Ni    -3.56437231   -0.05190291   -0.02735300       4
Co    -0.00926763   -0.04741890    3.64163518       5
Co     0.00107264   -0.09345687   -3.67621719       6
Ni    -0.07856102    1.72253276    1.89990658       7
Ni     1.73516647   -1.75792696    0.02103162       8
Cr     1.74112971   -0.03331914    1.91018733       9
Cr     1.88915168   -0.08737928   -1.92559546      10
Cr    -0.07986783    1.58851065   -1.93817421      11
Co    -1.71824879    1.63452223   -0.02593160      12
Co    -1.15377140   -0.95315084   -0.00810473      13
Cr    -1.87812141   -0.02654836    1.96545226      14
Cr    -0.00913088   -1.76973925    1.85235624      15
Cr     0.06108853   -1.68187209   -1.82614403      16
Cr    -1.88318182   -0.01425378   -1.96205579      17
Co     0.87948484    0.79323696   -0.05018237      18
          18
Lattice="  24.8920   0.0000   0.0000   0.0000  24.8920   0.0000   0.0000   0.0000  24.8920 " ConfE="      -5932.6807" DelE="         -0.1187"
Cr    -0.02724888    3.46284169   -0.07325105       1
Co     3.58243552   -0.05563338    0.02764475       2
Ni    -0.03427090   -3.58262537    0.00377760       3
Ni    -3.57299350   -0.06201894   -0.04307715       4
Co    -0.02680655   -0.04873562    3.53865447       5
Co    -0.02127025   -0.09379638   -3.58249202       6
Ni    -0.04213666    1.71444634    1.75408543       7
Ni     1.78028453   -1.81780928    0.02312768       8
Cr     1.73490889   -0.03134988    1.78160361       9
Cr     1.78898785   -0.07604803   -1.77436120      10
Cr    -0.03727951    1.61081741   -1.80803486      11
Co    -1.80270602    1.73483341   -0.04740115      12
Co    -0.09546721   -0.09561820    0.01301662      13
Cr    -1.86309175   -0.10145016    1.73951798      14
Cr    -0.10745666   -1.81282225    1.74041399      15
Cr    -0.04039503   -1.75193398   -1.70813521      16
Cr    -1.82780292   -0.11459777   -1.78147235      17
Co     1.74477557    1.67386329   -0.01069634      18
