          18
Lattice="  24.8920   0.0000   0.0000   0.0000  24.8920   0.0000   0.0000   0.0000  24.8920 " ConfE="      -5924.9006" DelE="          0.0000"
Ni     0.03593713    3.51924550   -0.00235974       1
Cr     0.04117786   -0.02494634    3.48569224       2
Cr    -3.55650472    0.07879066   -0.01463022       3
Ni     0.00362183    0.02022285   -3.54476177       4
Cr     3.62354023    0.02303928    0.05519476       5
Co    -0.00934758   -3.53620163    0.02172392       6
Ni     0.01038108    1.71571241    1.77356964       7
Co    -1.79330764    1.73779775    0.05955479       8
Ni    -1.77467284    0.02251752   -1.79992925       9
Ni     1.82641393   -0.00642163    1.78475684      10
Co    -1.75294802   -1.69612413    0.03135808      11
Cr    -0.03558905   -1.67899190    1.69368933      12
Ni     1.81005721   -1.78021911    0.00662444      13
Cr     0.00768388    1.74288140   -1.70409467      14
Co     1.83492681    1.74443399    0.01589494      15
Co     0.01880911   -1.74883763   -1.73141974      16
Co     1.82993759   -0.00516519   -1.75469375      17
Cr     0.00000000    0.00000000    0.00000000      18
          18
Lattice="  24.8920   0.0000   0.0000   0.0000  24.8920   0.0000   0.0000   0.0000  24.8920 " ConfE="      -5923.5864" DelE="          1.3142"
Ni     0.04493583    3.61285515   -0.00436549       1
Cr     0.07738741    0.04169466    3.53288307       2
Cr    -3.54881161    0.05686634   -0.05466748       3
Ni     0.02344521    0.01464095   -3.47986936       4
Cr     3.48430509    0.00719335   -0.00114031       5
Co     0.00338923   -3.65642952    0.02251922       6
Ni     0.05823859    1.86236219    1.77003511       7
Co    -1.76893662    1.87555231    0.00120329       8
Ni    -1.67986797    0.00760252   -1.69292941       9
Ni     1.68308746   -0.02297163    1.69888751      10
Co    -1.76854620   -1.86897713   -0.07615264      11
Cr     0.04720059   -1.87631140    1.64756672      12
Ni     1.80005728   -1.90592363   -0.00286326      13
Cr    -0.04634160    1.88261365   -1.72473948      14
Co     1.87045309    1.88137248    0.09553085      15
Co    -0.02809124   -1.94132106   -1.76097690      16
Co     0.93058488    0.06190502   -0.96958284      17
Cr    -1.07612523   -0.04336098    1.06619433      18
          18
Lattice="  24.8920   0.0000   0.0000   0.0000  24.8920   0.0000   0.0000   0.0000  24.8920 " ConfE="      -5924.6298" DelE="          0.2708"
Ni     0.04677378    3.55580425   -0.01567448       1
Cr     0.06586412    0.00975805    3.54986228       2
Cr    -3.59008926    0.06685747   -0.03840096       3
Ni     0.00878034    0.02355290   -3.55383824       4
Cr     3.61250695    0.03087203    0.05655093       5
Co    -0.00027469   -3.57638717    0.01514025       6
Ni     0.04025551    1.74636969    1.74375226       7
Co    -1.74281799    1.76403974    0.01333935       8
Ni    -1.72147749    0.02231919   -1.74559445       9
Ni     1.75485065   -0.00676505    1.74252570      10
Co    -1.72295637   -1.70625758    0.02227618      11
Cr    -0.01365403   -1.69400916    1.65297822      12
Ni     1.78252783   -1.76194424   -0.00730215      13
Cr     0.04473970    1.70446772   -1.67022300      14
Co     1.82013238    1.74328404   -0.01173342      15
Co     0.02053739   -1.75426211   -1.72776073      16
Co     1.81954803   -0.00481609   -1.75396614      17
Cr    -1.67336169    0.01614992    1.69946528      18
