          18
Lattice="  24.8920   0.0000   0.0000   0.0000  24.8920   0.0000   0.0000   0.0000  24.8920 " ConfE="      -5930.9933" DelE="          0.0000"
Co    -0.01969858   -0.00787132   -3.47944230       1
Co     3.48710936    0.01409499    0.06019749       2
Ni    -3.57663241    0.02758617    0.04174140       3
Ni    -0.00612105   -3.56189772    0.05601118       4
Cr    -0.03731304    3.61470795    0.07522358       5
Co    -0.07213844    0.01187167    3.60733410       6
Ni    -0.00569608    1.76500775   -1.72952362       7
Ni    -1.79371386   -1.77613911    0.04412013       8
Co     1.78773245   -1.73606544    0.03918131       9
Co    -0.01866279   -1.77123765   -1.72356446      10
Cr     1.74234769    1.73094312    0.01927381      11
Cr    -1.83522267   -0.03230244   -1.75503149      12
Co    -1.76555851    1.79517529    0.08114314      13
Cr     1.70283465   -0.03293530    1.88430811      14
Co    -1.79048719    0.03133896    1.81676293      15
Co     0.00263572   -1.73888432    1.84332914      16
Cr    -0.03794838    1.78713445    1.81394355      17
Ni     0.00000000    0.00000000    0.00000000      18
          18
Lattice="  24.8920   0.0000   0.0000   0.0000  24.8920   0.0000   0.0000   0.0000  24.8920 " ConfE="      -5930.3753" DelE="          0.6181"
Co    -0.00515455   -0.00898469   -3.41831016       1
Co     3.46692447    0.00916761    0.08152993       2
Ni    -3.56069988    0.03050119    0.03717699       3
Ni    -0.01294596   -3.62913271    0.05981685       4
Cr    -0.07374012    3.71107626    0.10089995       5
Co    -0.06145953    0.01148172    3.61820586       6
Ni    -0.05258073    1.94500274   -1.74422944       7
Ni    -1.74685353   -1.77160656    0.03399940       8
Co     1.80970941   -1.92897970    0.11220567       9
Co    -0.04303837   -1.91445630   -1.74279935      10
Cr     1.75431167    1.94544909    0.12622321      11
Cr    -1.70268761   -0.00924992   -1.67713857      12
Co    -1.70562191    1.79244024    0.08059213      13
Cr     1.62754945   -0.03032570    1.77488063      14
Co    -1.70885484    0.03902704    1.74887425      15
Co     0.02242889   -1.72223548    1.80052584      16
Cr    -0.04846327    1.77563947    1.77537367      17
Ni     0.92741162    0.03900833   -0.82136513      18
          18
Lattice="  24.8920   0.0000   0.0000   0.0000  24.8920   0.0000   0.0000   0.0000  24.8920 " ConfE="      -5930.9074" DelE="          0.0859"
Co    -0.04765385   -0.01148374   -3.51878996       1
Co     3.53288041    0.01769775    0.07836225       2
Ni    -3.58543127    0.03118910    0.05204633       3
Ni    -0.01109302   -3.58150314    0.06093721       4
Cr    -0.05816059    3.66029883    0.07755876       5
Co    -0.06828878    0.01086486    3.63562819       6
Ni    -0.05015469    1.76150757   -1.68861248       7
Ni    -1.76852630   -1.75569956    0.06278563       8
Co     1.75093017   -1.74672056    0.09088786       9
Co    -0.05942961   -1.75909901   -1.69091854      10
Cr     1.64996002    1.71055265    0.10561636      11
Cr    -1.78396886   -0.04442405   -1.69723957      12
Co    -1.73197001    1.76986387    0.09856997      13
Cr     1.64152943   -0.05111663    1.78449402      14
Co    -1.75345184    0.03565903    1.79394985      15
Co    -0.00086750   -1.71050000    1.82779897      16
Cr    -0.08152738    1.76065613    1.80295388      17
Ni     1.68878491   -0.00479914   -1.66160790      18
