          18
Lattice="  24.8920   0.0000   0.0000   0.0000  24.8920   0.0000   0.0000   0.0000  24.8920 " ConfE="      -5938.3639" DelE="          0.0000"
Ni    -0.01731944    3.51640490   -0.02183340       1
Co     0.01053036   -0.06756847   -3.54100738       2
Cr    -0.00944073   -0.09105228    3.63794867       3
Co    -0.00177070   -3.55820826    0.03083521       4
Co    -3.59911196    0.01172037    0.00240867       5
Cr     3.46605468   -0.01736831    0.02074353       6
Ni    -1.77005975   -0.00988530   -1.77277259       7
Ni     1.71978361    0.00453366   -1.75752643       8
Ni    -1.80561788    1.73669430   -0.01329007       9
Ni     1.72279916    1.75609499   -0.01109887      10
Ni    -0.03387601    1.74142559    1.83153644      11
Ni    -1.77968680   -0.02147163    1.79697588      12
Ni    -1.78166533   -1.78209590    0.02123016      13
Cr    -0.00612952   -1.80681938   -1.77838927      14
Co     0.02556736   -1.78837605    1.78683092      15
Cr     1.75275906   -0.01331813    1.87508318      16
Cr     1.75210656   -1.82924824    0.06815750      17
Ni     0.00000000    0.00000000    0.00000000      18
          18
Lattice="  24.8920   0.0000   0.0000   0.0000  24.8920   0.0000   0.0000   0.0000  24.8920 " ConfE="      -5937.3803" DelE="          0.9836"
Ni    -0.01143165    3.46280762   -0.03094891       1
Co     0.00464183   -0.06750693   -3.52082139       2
Cr    -0.02079616   -0.07919433    3.64446837       3
Co    -0.01669584   -3.54503233    0.01549077       4
Co    -3.67333427   -0.00719618    0.02285498       5
Cr     3.56922307   -0.04232291    0.04089941       6
Ni    -1.96568696   -0.07060465   -1.78112993       7
Ni     1.86632956   -0.03662002   -1.77680338       8
Ni    -1.96175946    1.74694942    0.05321253       9
Ni     1.84497665    1.72937401    0.04735068      10
Ni    -0.03675567    1.69509055    1.75929825      11
Ni    -1.78133554   -0.01910743    1.77613002      12
Ni    -1.78773410   -1.74648280    0.01658413      13
Cr    -0.02610313   -1.63702386   -1.70257909      14
Co     0.03080465   -1.71818075    1.72654205      15
Cr     1.71646839   -0.01957268    1.82796918      16
Cr     1.70228329   -1.72491724    0.04950952      17
Ni    -0.06569272    1.08814252   -1.14904535      18
          18
Lattice="  24.8920   0.0000   0.0000   0.0000  24.8920   0.0000   0.0000   0.0000  24.8920 " ConfE="      -5938.0856" DelE="          0.2784"
Ni    -0.01961655    3.53867640   -0.00105076       1
Co     0.00256263   -0.07560690   -3.58305346       2
Cr    -0.01231896   -0.09166472    3.66731357       3
Co    -0.00093203   -3.57862434    0.03218795       4
Co    -3.61593090    0.00887321    0.00638872       5
Cr     3.50363598   -0.02513659    0.02965880       6
Ni    -1.77920214   -0.03467173   -1.76018243       7
Ni     1.70146361   -0.03234228   -1.72295978       8
Ni    -1.79693578    1.71022649    0.00327946       9
Ni     1.69244302    1.69279613    0.02619899      10
Ni    -0.03388670    1.70478354    1.80392859      11
Ni    -1.75571523   -0.02615036    1.78097318      12
Ni    -1.74749572   -1.75994592    0.01831779      13
Cr    -0.00751778   -1.75608889   -1.74369428      14
Co     0.05175640   -1.72406556    1.73152253      15
Cr     1.73368287   -0.04015235    1.87140861      16
Cr     1.73224696   -1.80048878    0.07848049      17
Ni    -0.04552990    1.72121101   -1.77879405      18
