          18
Lattice="  24.8920   0.0000   0.0000   0.0000  24.8920   0.0000   0.0000   0.0000  24.8920 " ConfE="      -5946.3011" DelE="          0.0000"
Co     3.46499687   -0.01722748    0.04177622       1
Co    -0.01464995    3.48607897    0.04621025       2
Co    -0.04302817   -3.60197919    0.01910748       3
Co    -3.60716577   -0.06545238    0.03166866       4
Co    -0.06341955   -0.06030858   -3.49115758       5
Co    -0.05727118   -0.02216190    3.57487590       6
Ni     1.71736172   -0.02105007    1.80111211       7
Ni    -0.06390608    1.71439066    1.78477446       8
Cr     1.77852704   -0.01881987   -1.70458667       9
Co    -0.06307057    1.72991267   -1.74272972      10
Ni    -1.79618974   -1.79790983    0.01933950      11
Ni    -0.03700149   -1.79528301    1.80829399      12
Cr     1.77962613   -1.84671697    0.02616301      13
Co    -1.86937701    1.73665225    0.00003359      14
Co    -0.05672320   -1.79868118   -1.73880282      15
Cr    -1.86525999   -0.01807545   -1.74609980      16
Co    -1.84747167   -0.04232897    1.79034737      17
Ni     0.00000000    0.00000000    0.00000000      18
          18
Lattice="  24.8920   0.0000   0.0000   0.0000  24.8920   0.0000   0.0000   0.0000  24.8920 " ConfE="      -5945.7627" DelE="          0.5385"
Co     3.44982519   -0.01930788    0.05390544       1
Co    -0.02529209    3.45948987    0.04063035       2
Co    -0.04012043   -3.59617096    0.01158950       3
Co    -3.62075246   -0.05841156    0.03629019       4
Co    -0.06709946   -0.05487512   -3.53347008       5
Co    -0.07804718   -0.03868889    3.62193742       6
Ni     1.73701465   -0.08285389    1.95268212       7
Ni    -0.12326807    1.71767388    1.91066610       8
Cr     1.81301996   -0.07007436   -1.88654130       9
Co    -0.11753013    1.78962874   -1.89559854      10
Ni    -1.75727782   -1.74574012    0.02158009      11
Ni    -0.03476171   -1.76801736    1.80054345      12
Cr     1.73268346   -1.74313384    0.01197107      13
Co    -1.80099396    1.69104991   -0.00193574      14
Co    -0.03030297   -1.69893104   -1.69849484      15
Cr    -1.80592131    0.02448378   -1.69911780      16
Co    -1.83484241   -0.03552454    1.78863149      17
Ni     0.84850364    0.81043941   -0.01754460      18
          18
Lattice="  24.8920   0.0000   0.0000   0.0000  24.8920   0.0000   0.0000   0.0000  24.8920 " ConfE="      -5946.3685" DelE="         -0.0674"
Co     3.52272189   -0.05664621    0.04133943       1
Co    -0.05434299    3.52895697    0.04341147       2
Co    -0.04770620   -3.61329641    0.01461912       3
Co    -3.62856849   -0.06599355    0.04093603       4
Co    -0.07313883   -0.06269887   -3.52389377       5
Co    -0.06116779   -0.02527482    3.58949546       6
Ni     1.69040730   -0.05485165    1.79552891       7
Ni    -0.09088577    1.68954072    1.77795616       8
Cr     1.67145166   -0.07235647   -1.69892215       9
Co    -0.10122225    1.68307831   -1.72151367      10
Ni    -1.77639213   -1.76871546    0.02312391      11
Ni    -0.04441477   -1.77721796    1.78914941      12
Cr     1.75076503   -1.79074775    0.02407018      13
Co    -1.83425245    1.69735538    0.00475263      14
Co    -0.04031998   -1.72069024   -1.68405438      15
Cr    -1.80448255    0.00306227   -1.68814805      16
Co    -1.84097608   -0.04629452    1.77712213      17
Ni     1.67121923    1.66632242    0.01481515      18
