          18
Lattice="  24.8920   0.0000   0.0000   0.0000  24.8920   0.0000   0.0000   0.0000  24.8920 " ConfE="      -5923.3801" DelE="          0.0000"
Co    -3.50718233    0.05560107   -0.06588914       1
Cr    -0.05431546   -0.00460689    3.34764162       2
Cr     3.55572002   -0.02718923    0.04626253       3
Ni    -0.01514209   -0.01751831   -3.64505950       4
Co    -0.00145368   -3.46289815   -0.10268232       5
Co    -0.01116935    3.53280426   -0.10158758       6
Ni    -1.76457790   -1.72379132   -0.06008226       7
Cr    -1.80060773    1.74296096   -0.04285123       8
Co    -0.01699001   -1.70989462    1.70799386       9
Co    -0.05880813    1.73807027    1.67698066      10
Ni    -1.78025507   -0.00821284   -1.86725932      11
Co     1.79766327    0.01631113    1.69935512      12
Co     1.80916758    0.01614405   -1.85598184      13
Cr     0.05431211   -1.73287723   -1.80232387      14
Ni    -0.02425940    1.74581659   -1.84998815      15
Co     1.78825053   -1.74263110   -0.06635528      16
Co     1.78981375    1.77258457   -0.08890392      17
Cr     0.00000000    0.00000000    0.00000000      18
          18
Lattice="  24.8920   0.0000   0.0000   0.0000  24.8920   0.0000   0.0000   0.0000  24.8920 " ConfE="      -5922.5574" DelE="          0.8227"
Co    -3.49799769    0.03835798   -0.05495880       1
Cr    -0.02378976    0.01146859    3.43238877       2
Cr     3.50508693   -0.00244374    0.09894357       3
Ni    -0.02158500   -0.02150387   -3.63745810       4
Co    -0.00726490   -3.52517906   -0.11811532       5
Co     0.00696584    3.60251430   -0.11552027       6
Ni    -1.83865964   -1.88141659   -0.12046914       7
Cr    -1.79402169    1.88539266   -0.12325229       8
Co     0.00466365   -1.84431329    1.69738883       9
Co    -0.00387419    1.87350216    1.69467727      10
Ni    -1.73621908   -0.02052870   -1.78113490      11
Co     1.66263294    0.01939991    1.67024213      12
Co     1.79993618    0.02296480   -1.83971977      13
Cr     0.06052102   -1.68240108   -1.70302987      14
Ni    -0.01668634    1.72059602   -1.80744522      15
Co     1.69850583   -1.70004666   -0.07212719      16
Co     1.74333868    1.76006671   -0.07957818      17
Cr    -0.98273395   -0.00086534    0.89640014      18
          18
Lattice="  24.8920   0.0000   0.0000   0.0000  24.8920   0.0000   0.0000   0.0000  24.8920 " ConfE="      -5923.0648" DelE="          0.3153"
Co    -3.55799311    0.02754376   -0.10655066       1
Cr     0.00114902    0.01616045    3.46014666       2
Cr     3.53176722   -0.01304394    0.07940153       3
Ni    -0.00757163   -0.01719536   -3.65967121       4
Co     0.00032622   -3.50352873   -0.10962966       5
Co     0.00548679    3.56928006   -0.11069631       6
Ni    -1.72083221   -1.72482761   -0.08807647       7
Cr    -1.73783972    1.75144953   -0.07863358       8
Co    -0.01070200   -1.70458646    1.68948800       9
Co    -0.04074566    1.74463217    1.63799881      10
Ni    -1.73073115   -0.01192982   -1.82436121      11
Co     1.71518059    0.01914897    1.66426813      12
Co     1.81095384    0.01799046   -1.85328509      13
Cr     0.10346474   -1.70987593   -1.77943406      14
Ni     0.00314999    1.72730842   -1.83380287      15
Co     1.72519417   -1.70763269   -0.08830873      16
Co     1.78603121    1.76912091   -0.10185113      17
Cr    -1.72747143    0.02905466    1.64572260      18
