          18
Lattice="  24.8920   0.0000   0.0000   0.0000  24.8920   0.0000   0.0000   0.0000  24.8920 " ConfE="      -5938.6063" DelE="          0.0000"
Ni    -0.00613233    3.70527587    0.04814955       1
Ni    -3.55197660    0.09279233    0.06943599       2
Ni    -0.01698803   -3.53193340    0.08613751       3
Co    -0.01429469    0.05945691   -3.42195600       4
Cr     3.54775439    0.06353420    0.04924134       5
Co    -0.00598021    0.06834385    3.64083482       6
Cr     1.56942566    1.85419508   -0.14209890       7
Cr     1.77002749    0.01782355   -1.73449929       8
Cr    -1.57485780    1.82221047   -0.11071543       9
Ni    -0.02662019   -1.74250674    1.84844159      10
Cr    -1.82181897    0.06120623   -1.72886941      11
Cr     0.05590698    1.75805649    1.81422092      12
Co     1.77300134    0.04240533    1.79159500      13
Cr     1.80846027   -1.75649022    0.08421831      14
Co    -1.78629337    0.09571074    1.81493622      15
Cr    -0.06885318   -1.79163250   -1.73424159      16
Cr    -1.83711011   -1.74274917    0.07027726      17
Co     0.00000000    0.00000000    0.00000000      18
          18
Lattice="  24.8920   0.0000   0.0000   0.0000  24.8920   0.0000   0.0000   0.0000  24.8920 " ConfE="      -5937.4190" DelE="          1.1873"
Ni    -0.01921520    3.60467302    0.04368789       1
Ni    -3.66434934    0.07303437    0.06448029       2
Ni     0.00307326   -3.45393759    0.12675750       3
Co    -0.00460547    0.01364476   -3.36929794       4
Cr     3.66513833    0.04501052    0.06512878       5
Co    -0.00316322    0.05225196    3.57516335       6
Cr     1.79383927    1.83848693   -0.03722475       7
Cr     1.92745239   -0.05601399   -1.71201911       8
Cr    -1.85705217    1.82219849   -0.00713135       9
Ni    -0.00297381   -1.09476002    1.19716454      10
Cr    -2.08544991    0.04163511   -1.84207316      11
Cr     0.02937985    1.59902684    1.67633640      12
Co     1.96040208    0.07780847    1.84452408      13
Cr     1.95163375   -1.75972830    0.06861775      14
Co    -1.95668954    0.10333159    1.86880220      15
Cr    -0.07071110   -1.77889456   -1.68824663      16
Cr    -1.92263745   -1.68092035   -0.01316015      17
Co    -0.07914521    0.60459348   -0.81055536      18
          18
Lattice="  24.8920   0.0000   0.0000   0.0000  24.8920   0.0000   0.0000   0.0000  24.8920 " ConfE="      -5937.5833" DelE="          1.0229"
Ni    -0.01883129    3.58599084    0.02069261       1
Ni    -3.69696275    0.05492126    0.07650470       2
Ni    -0.00156544   -3.42601000    0.13509554       3
Co    -0.01636216    0.02613229   -3.40711965       4
Cr     3.67089951    0.03867055    0.06580236       5
Co    -0.00596176    0.05200143    3.53252613       6
Cr     1.87679827    1.87344966    0.01489987       7
Cr     1.90407382   -0.06769139   -1.68160823       8
Cr    -1.91798533    1.83948148    0.02422687       9
Ni    -0.00675656   -0.89903988    0.91390912      10
Cr    -1.98813181   -0.00681161   -1.68797813      11
Cr     0.02702396    1.62724111    1.63899886      12
Co     1.96182035    0.06617044    1.83870177      13
Cr     2.00802578   -1.80034232    0.09605657      14
Co    -1.96318910    0.09541985    1.83787921      15
Cr    -0.06926802   -1.63981105   -1.63362951      16
Cr    -2.02348564   -1.80174834    0.06551082      17
Co    -0.01367389    1.10144680   -1.07905382      18
