          18
Lattice="  24.8920   0.0000   0.0000   0.0000  24.8920   0.0000   0.0000   0.0000  24.8920 " ConfE="      -5946.6233" DelE="          0.0000"
Ni    -3.48566424    0.07890040   -0.06798474       1
Co     0.00482325    3.58908729   -0.03334123       2
Co     3.56171229   -0.00159773   -0.07316685       3
Ni     0.01222128   -3.52209189   -0.05718090       4
Ni     0.01591784    0.04625324   -3.59096775       5
Co     0.04303828    0.02873365    3.49263072       6
Ni    -1.73515689    0.05810529   -1.79348600       7
Co    -1.77989854    0.03138840    1.69760081       8
Ni    -0.02884715    1.80337028   -1.76716879       9
Ni    -0.05313319    1.77503147    1.67886279      10
Co    -1.76353317   -1.77789214   -0.02523181      11
Co     1.81442421    1.80055711   -0.01845546      12
Co     1.80302229   -1.77137570   -0.06097534      13
Co     0.06306200   -1.73372684   -1.81104366      14
Cr     0.05280720   -1.73442286    1.72795078      15
Cr     1.78597147    0.03788747   -1.74887396      16
Co     1.79437537    0.03264779    1.71294396      17
Cr     0.00000000    0.00000000    0.00000000      18
          18
Lattice="  24.8920   0.0000   0.0000   0.0000  24.8920   0.0000   0.0000   0.0000  24.8920 " ConfE="      -5945.4494" DelE="          1.1739"
Ni    -3.45843546    0.06826726   -0.06312353       1
Co    -0.01988982    3.51967265   -0.03512490       2
Co     3.55736686    0.01285514   -0.07171096       3
Ni     0.00692747   -3.51198504   -0.06109566       4
Ni     0.02148969    0.03014098   -3.65801497       5
Co     0.05974307    0.01868274    3.57471397       6
Ni    -1.75157736    0.00457421   -1.92475896       7
Co    -1.79252277    0.03134419    1.82648407       8
Ni    -0.01179242    1.83750551   -1.95454604       9
Ni     0.03825620    1.81662148    1.89193072      10
Co    -1.70495864   -1.67975415   -0.01263655      11
Co     1.69371854    1.74474001   -0.03170681      12
Co     1.76286070   -1.72063138   -0.06116485      13
Co     0.06523096   -1.66745862   -1.78426032      14
Cr     0.01201425   -1.59649692    1.62509290      15
Cr     1.65657597    0.06106495   -1.66579739      16
Co     1.73296760    0.02410960    1.69082313      17
Cr    -0.94251210    0.99426034   -0.00757551      18
          18
Lattice="  24.8920   0.0000   0.0000   0.0000  24.8920   0.0000   0.0000   0.0000  24.8920 " ConfE="      -5946.3416" DelE="          0.2817"
Ni    -3.53326722    0.03100981   -0.05819591       1
Co     0.01001732    3.61040347   -0.04627584       2
Co     3.58792460    0.00005612   -0.06917028       3
Ni     0.01446787   -3.53153665   -0.05616981       4
Ni     0.02860183    0.03682045   -3.61193932       5
Co     0.04910147    0.02729944    3.52446850       6
Ni    -1.69933440    0.02629158   -1.78050746       7
Co    -1.76408839    0.01896167    1.69528714       8
Ni     0.01286969    1.77309643   -1.77744441       9
Ni    -0.01083743    1.73190012    1.67650772      10
Co    -1.72375857   -1.73245262   -0.00598277      11
Co     1.78206828    1.77687908   -0.02772769      12
Co     1.76434288   -1.72349252   -0.05842806      13
Co     0.08709079   -1.71495301   -1.79417346      14
Cr     0.04359922   -1.69755983    1.68545030      15
Cr     1.78543264    0.01449857   -1.71947717      16
Co     1.76619595    0.01189767    1.68707868      17
Cr    -1.74911460    1.79839176   -0.04141607      18
