          19
Lattice="  24.8920   0.0000   0.0000   0.0000  24.8920   0.0000   0.0000   0.0000  24.8920 " ConfE="      -5948.0864" DelE="          0.0000"
Cr     2.48237967    2.48417596   -0.07752544       1
Ni    -3.63616429   -0.06535079   -0.01453317       2
Cr     0.00954524   -3.57781181    0.01420828       3
Ni     3.45839971   -0.01085941    0.00773452       4
Cr    -0.19387767    3.52446027    0.01941136       5
Ni    -0.07770191    0.01501433   -3.57895441       6
Ni    -0.06148407   -0.04522054    3.54829664       7
Ni    -0.02398761    1.75530094   -1.73303194       8
Ni    -0.06888894    1.74032186    1.76400885       9
Cr     1.78572505    0.09033225   -1.75612208      10
Cr     1.72805028    0.06210614    1.72715447      11
Cr    -1.78242922   -1.82038952    0.05248991      12
Ni    -1.83689340   -0.02224450   -1.79109526      13
Co    -1.84554501   -0.06402180    1.74950899      14
Ni    -0.04844609   -1.77227229   -1.77496075      15
Co    -0.01139477   -1.81442678    1.72443195      16
Ni    -1.87968512    1.71093664    0.00337517      17
Co     1.74540042   -1.80829032   -0.02517697      18
Ni     0.00000000    0.00000000    0.00000000      19
          19
Lattice="  24.8920   0.0000   0.0000   0.0000  24.8920   0.0000   0.0000   0.0000  24.8920 " ConfE="      -5947.4887" DelE="          0.5976"
Cr     2.54632582    2.55735224   -0.06040973       1
Ni    -3.62497144   -0.06460222   -0.01671453       2
Cr     0.02650311   -3.59594334    0.00451527       3
Ni     3.38425871    0.01254170    0.02297730       4
Cr    -0.16061989    3.48103119    0.01953464       5
Ni    -0.08695564    0.00477387   -3.63487242       6
Ni    -0.08464247   -0.04864655    3.58826503       7
Ni    -0.06959619    1.76436832   -1.85399928       8
Ni    -0.09599059    1.77548929    1.87022006       9
Cr     1.83355093    0.07945574   -1.91727480      10
Cr     1.76746193   -0.04479918    1.97343399      11
Cr    -1.67537988   -1.73221328    0.06078445      12
Ni    -1.83024724   -0.02434605   -1.80845543      13
Co    -1.81383629   -0.07033282    1.73392642      14
Ni    -0.03195580   -1.72187172   -1.76296587      15
Co     0.00289509   -1.75513858    1.69248614      16
Ni    -1.80280556    1.66847422    0.00469459      17
Co     1.72452754   -1.78010079   -0.02847350      18
Ni     0.65956528    0.53323937    0.04250228      19
          19
Lattice="  24.8920   0.0000   0.0000   0.0000  24.8920   0.0000   0.0000   0.0000  24.8920 " ConfE="      -5948.8836" DelE="         -0.7972"
Cr     3.51208846    3.48618279    0.01960021       1
Ni    -3.65488650   -0.07265422   -0.01821198       2
Cr    -0.00618731   -3.60301270    0.00419660       3
Ni     3.47031259   -0.05673081    0.00043549       4
Cr    -0.17083587    3.53386781    0.01320269       5
Ni    -0.10195946   -0.00532648   -3.61753081       6
Ni    -0.07818511   -0.05927739    3.57749109       7
Ni    -0.06450642    1.69226915   -1.74946290       8
Ni    -0.09478160    1.68847829    1.76449582       9
Cr     1.75971927   -0.01243755   -1.83601000      10
Cr     1.67533496   -0.08518979    1.80749052      11
Cr    -1.74239819   -1.78375554    0.06549292      12
Ni    -1.83860787   -0.04478026   -1.78309148      13
Co    -1.82545839   -0.09239594    1.70841458      14
Ni    -0.07064057   -1.76390027   -1.75859571      15
Co    -0.02621887   -1.77645972    1.68275625      16
Ni    -1.84798525    1.68233165    0.00016434      17
Co     1.68335210   -1.75842875   -0.03259601      18
Ni     1.64766885    1.67061455    0.01584280      19
