          18
Lattice="  24.8920   0.0000   0.0000   0.0000  24.8920   0.0000   0.0000   0.0000  24.8920 " ConfE="      -5938.2556" DelE="          0.0000"
Ni     3.57848298    0.00889808    0.00282824       1
Cr     0.00341065   -0.02792522    3.47371107       2
Co     0.00371396    3.55251337    0.00410169       3
Cr    -0.03934375   -3.54508963   -0.04318683       4
Cr    -0.02091140    0.01456813   -3.56327133       5
Cr    -3.49349068    0.02042147   -0.02410972       6
Ni     1.76179104    0.04596784    1.77708254       7
Co     1.75980866    1.78866372   -0.00515910       8
Ni     1.79292773   -1.76319516    0.00509182       9
Co    -1.68118158   -0.02812771    1.77965615      10
Co    -1.75651390    1.73108430   -0.02229109      11
Ni    -1.77972526   -1.78449050    0.01011481      12
Cr     0.02694811   -1.83741450    1.79790021      13
Cr     1.72194091    0.08696204   -1.74127170      14
Co     0.01128516    1.79838201   -1.80955246      15
Cr     0.01156259   -1.78069312   -1.79132474      16
Cr    -1.66027942    0.06831998   -1.72162215      17
Co     0.00000000    0.00000000    0.00000000      18
          18
Lattice="  24.8920   0.0000   0.0000   0.0000  24.8920   0.0000   0.0000   0.0000  24.8920 " ConfE="      -5937.3115" DelE="          0.9441"
Ni     3.63599568   -0.01135887   -0.00825809       1
Cr     0.01508075    0.02618363    3.41340976       2
Co     0.01038776    3.50418440    0.01162551       3
Cr    -0.02596971   -3.55188335   -0.01547259       4
Cr    -0.03309396    0.02128342   -3.57071107       5
Cr    -3.58328346    0.00923355   -0.04909479       6
Ni     1.92596682   -0.01023011    1.81749245       7
Co     1.93528669    1.80126463   -0.07400571       8
Ni     1.78301873   -1.71774384    0.01404171       9
Co    -1.84864005   -0.08388233    1.77132539      10
Co    -1.91465470    1.73752497   -0.08340093      11
Ni    -1.77034699   -1.75353444    0.00348119      12
Cr     0.01147927   -1.64860219    1.72633938      13
Cr     1.68285960    0.08790923   -1.70610640      14
Co     0.01229224    1.74496780   -1.70130748      15
Cr     0.01994357   -1.72886392   -1.71430860      16
Cr    -1.61220454    0.07854672   -1.67010585      17
Co     0.00341144    1.00995634    0.95718457      18
          18
Lattice="  24.8920   0.0000   0.0000   0.0000  24.8920   0.0000   0.0000   0.0000  24.8920 " ConfE="      -5937.7720" DelE="          0.4836"
Ni     3.58748321   -0.00130110   -0.00914592       1
Cr     0.01909284   -0.02216010    3.53465192       2
Co     0.00592170    3.57920740   -0.00670670       3
Cr    -0.03337657   -3.58318685   -0.03446472       4
Cr    -0.03307606    0.00927107   -3.60485208       5
Cr    -3.52256203    0.01280830   -0.04397769       6
Ni     1.78843582    0.01233019    1.77417460       7
Co     1.76894492    1.75536449   -0.03199499       8
Ni     1.73763378   -1.72626194    0.00623575       9
Co    -1.67054278   -0.05275771    1.74050485      10
Co    -1.73812124    1.69777655   -0.03588637      11
Ni    -1.73609676   -1.76432698    0.00409884      12
Cr     0.01333798   -1.75239485    1.81225042      13
Cr     1.65577844    0.07701820   -1.72968329      14
Co     0.01980402    1.77584339   -1.77389396      15
Cr     0.01633813   -1.77193493   -1.77526693      16
Cr    -1.56470217    0.06909654   -1.67829763      17
Co     0.03640427    1.71451672    1.74999763      18
