          18
Lattice="  24.8920   0.0000   0.0000   0.0000  24.8920   0.0000   0.0000   0.0000  24.8920 " ConfE="      -5949.9130" DelE="          0.0000"
Ni    -0.01642272   -0.01618504   -3.58865249       1
Co    -0.05698808    3.54994589   -0.01755672       2
Co     0.03442030    0.02352092    3.52488763       3
Co     0.02387013   -3.54257518   -0.00557047       4
Co    -3.52435878    0.00165169   -0.00735301       5
Co     3.61580454   -0.04323777   -0.00223832       6
Ni    -1.72087310    0.01177668    1.74726212       7
Ni     1.73559472    1.74686586    0.01415708       8
Ni     1.78267408   -0.00851006    1.76193203       9
Ni    -0.01005690    1.75953829   -1.79751043      10
Ni    -0.00827360   -1.75917622   -1.79031194      11
Co    -1.74785688    1.79957173    0.03421856      12
Ni     1.79045841   -0.02023245   -1.78145994      13
Ni     1.80861868   -1.78372255   -0.01654133      14
Co    -1.79566458    0.00326460   -1.78805015      15
Co     0.04176616   -1.82810543    1.77835353      16
Cr    -1.78235280   -1.77154855    0.02471170      17
Ni     0.00000000    0.00000000    0.00000000      18
          18
Lattice="  24.8920   0.0000   0.0000   0.0000  24.8920   0.0000   0.0000   0.0000  24.8920 " ConfE="      -5949.3134" DelE="          0.5995"
Ni    -0.01757918   -0.00802476   -3.58105169       1
Co    -0.06211007    3.50547533   -0.00385562       2
Co     0.03450946    0.00271986    3.49783438       3
Co     0.03263432   -3.55326849   -0.00590395       4
Co    -3.58859083   -0.01471960   -0.00911884       5
Co     3.67086635   -0.05411141   -0.01674096       6
Ni    -1.89184153   -0.03823649    1.78898345       7
Ni     1.92889512    1.76317905   -0.04805381       8
Ni     1.91103591   -0.06607873    1.77323568       9
Ni    -0.00291622    1.72719157   -1.73416646      10
Ni    -0.00257041   -1.71417373   -1.73751826      11
Co    -1.95799974    1.83223145   -0.07390277      12
Ni     1.79055477   -0.01683750   -1.75595547      13
Ni     1.81606633   -1.76937814   -0.01289394      14
Co    -1.78157469   -0.00880902   -1.73483191      15
Co     0.00330456   -1.75910376    1.70393761      16
Cr    -1.74898873   -1.72014174    0.02550988      17
Ni    -0.02521663    0.76762128    0.69397031      18
          18
Lattice="  24.8920   0.0000   0.0000   0.0000  24.8920   0.0000   0.0000   0.0000  24.8920 " ConfE="      -5950.0892" DelE="         -0.1763"
Ni    -0.02025472   -0.01722965   -3.59513950       1
Co    -0.04516444    3.58060807   -0.05137957       2
Co     0.03308097   -0.02548828    3.55567572       3
Co     0.02979450   -3.56375294   -0.01051290       4
Co    -3.56485454   -0.00850316   -0.00669140       5
Co     3.64533938   -0.05208330   -0.00769097       6
Ni    -1.72551550   -0.02036475    1.69661855       7
Ni     1.76202549    1.71558398   -0.01556634       8
Ni     1.79687753   -0.03777045    1.74428848       9
Ni    -0.00730205    1.73190153   -1.76188110      10
Ni    -0.01510536   -1.72603936   -1.74728410      11
Co    -1.77572504    1.76730349   -0.01847358      12
Ni     1.76392918   -0.02242811   -1.75349918      13
Ni     1.79740467   -1.76942366   -0.01706358      14
Co    -1.78302971   -0.00875904   -1.74825176      15
Co     0.02284549   -1.78643404    1.72154482      16
Cr    -1.75797529   -1.75928275    0.01535685      17
Ni     0.02405485    1.72927685    1.71725464      18
