          18
Lattice="  24.8920   0.0000   0.0000   0.0000  24.8920   0.0000   0.0000   0.0000  24.8920 " ConfE="      -5946.3638" DelE="          0.0000"
Cr     3.41822338   -0.11880133    0.02990826       1
Cr    -0.04289028   -0.03899191    3.48504922       2
Co    -3.61672343   -0.04098231   -0.03083703       3
Ni    -0.05775490   -0.06185492   -3.56675227       4
Cr     0.01741591   -3.60825363    0.00687691       5
Cr    -0.06516257    3.41348803   -0.02944839       6
Co     1.74438984   -1.76857684    0.05733319       7
Cr     1.76128960    1.70334331   -0.02999785       8
Ni    -0.02633907   -1.78160091    1.77915667       9
Cr    -0.04922725    1.67104922    1.74943962      10
Co     1.73124184   -0.04966843   -1.81785324      11
Ni    -1.86620642   -0.06403035    1.76839551      12
Co    -1.83576285   -0.04695227   -1.78118352      13
Cr     0.01168110   -1.81846563   -1.75087820      14
Co    -0.02918421    1.71092521   -1.78031810      15
Ni    -1.80410897   -1.80901231   -0.01584505      16
Co    -1.80861165    1.72086932    0.00474713      17
Cr     0.00000000    0.00000000    0.00000000      18
          18
Lattice="  24.8920   0.0000   0.0000   0.0000  24.8920   0.0000   0.0000   0.0000  24.8920 " ConfE="      -5945.6554" DelE="          0.7084"
Cr     3.47138373   -0.11197299   -0.00050799       1
Cr    -0.06028545   -0.04777534    3.50608790       2
Co    -3.60366397   -0.04709331   -0.01754916       3
Ni    -0.04670689   -0.05936461   -3.55402006       4
Cr    -0.01360755   -3.72866319   -0.00327991       5
Cr    -0.10687095    3.49989256   -0.03723837       6
Co     1.72422068   -1.94604067    0.00870498       7
Cr     1.81693608    1.86673115   -0.13729823       8
Ni    -0.05825999   -1.91490792    1.80627937       9
Cr    -0.15087924    1.81042643    1.78431244      10
Co     1.70481776   -0.05985183   -1.71973041      11
Ni    -1.76200343   -0.07088171    1.74082356      12
Co    -1.80920446   -0.05258843   -1.75038034      13
Cr     0.03191263   -1.75587587   -1.66922117      14
Co    -0.01588140    1.66172766   -1.67960274      15
Ni    -1.74431653   -1.80420821   -0.01085040      16
Co    -1.75317145    1.70927171    0.02635488      17
Cr     0.93937226    0.00733786    0.87001879      18
          18
Lattice="  24.8920   0.0000   0.0000   0.0000  24.8920   0.0000   0.0000   0.0000  24.8920 " ConfE="      -5946.3011" DelE="          0.0627"
Cr     3.50312625   -0.11927210   -0.03030154       1
Cr    -0.08182913   -0.05064664    3.53522528       2
Co    -3.63839628   -0.04423172   -0.03530522       3
Ni    -0.05405692   -0.06193972   -3.57076032       4
Cr     0.01060685   -3.62760094   -0.00917581       5
Cr    -0.08016145    3.47022892   -0.03730795       6
Co     1.69597759   -1.79811144    0.00643740       7
Cr     1.69676901    1.67793107   -0.07638033       8
Ni    -0.05165756   -1.80193404    1.76577329       9
Cr    -0.09937081    1.64032744    1.64200141      10
Co     1.69630063   -0.06245701   -1.75043360      11
Ni    -1.83292536   -0.06649331    1.74943565      12
Co    -1.83208985   -0.05097130   -1.77806854      13
Cr     0.00950776   -1.79970384   -1.73992549      14
Co    -0.03651684    1.66373438   -1.71997315      15
Ni    -1.76901928   -1.78088397   -0.03533882      16
Co    -1.78366923    1.70519500    0.01087143      17
Cr     1.69445641   -0.05134594    1.70472737      18
