          18
Lattice="  24.8920   0.0000   0.0000   0.0000  24.8920   0.0000   0.0000   0.0000  24.8920 " ConfE="      -5943.0524" DelE="          0.0000"
Cr     3.43213255    0.01011508   -0.06263291       1
Cr    -0.00513171    0.00206393    3.43905896       2
Co    -3.62440434   -0.04153468   -0.07136014       3
Ni    -0.04448868   -0.03493287   -3.59974576       4
Cr    -0.00895076   -3.59304905   -0.00869797       5
Co    -0.06708810    3.53795624   -0.03887477       6
Ni     1.71229763   -1.74715720   -0.03002676       7
Ni     1.72375895    1.74906197   -0.07111435       8
Cr    -0.01383073   -1.74692939    1.73788663       9
Co     0.01833300    1.63296488    1.74488558      10
Co     1.76419253   -0.01391459   -1.83665386      11
Co    -1.85121319   -0.02791330    1.72689365      12
Ni    -1.80022840   -0.00362120   -1.82973603      13
Ni    -0.05592690   -1.77695930   -1.81230754      14
Ni    -0.02580113    1.78077650   -1.85934146      15
Cr    -1.84892762   -1.78226498   -0.05258132      16
Ni    -1.80925283    1.73566442   -0.04980281      17
Cr     0.00000000    0.00000000    0.00000000      18
          18
Lattice="  24.8920   0.0000   0.0000   0.0000  24.8920   0.0000   0.0000   0.0000  24.8920 " ConfE="      -5942.4469" DelE="          0.6055"
Cr     3.42248782   -0.00788914   -0.07192712       1
Cr    -0.07593515   -0.00352589    3.49300466       2
Co    -3.62478440   -0.03860356   -0.05790372       3
Ni    -0.03233967   -0.04130203   -3.58875225       4
Cr    -0.04222774   -3.66577589   -0.03716919       5
Co    -0.06813025    3.61335432   -0.05958959       6
Ni     1.76092183   -1.91657995   -0.08395470       7
Ni     1.71418256    1.83513451   -0.08107887       8
Cr    -0.04915506   -1.96419105    1.75856709       9
Co    -0.07176602    1.82561181    1.74990028      10
Co     1.75341032   -0.02294973   -1.71704982      11
Co    -1.78600527   -0.04840079    1.71555625      12
Ni    -1.74691647   -0.00376402   -1.77345821      13
Ni    -0.04685310   -1.76092041   -1.74828823      14
Ni    -0.01116910    1.78226862   -1.83251920      15
Cr    -1.78341979   -1.73152640   -0.01311982      16
Ni    -1.76421815    1.71825560   -0.03410333      17
Cr     0.68170488   -0.06758907    0.82861927      18
          18
Lattice="  24.8920   0.0000   0.0000   0.0000  24.8920   0.0000   0.0000   0.0000  24.8920 " ConfE="      -5943.1634" DelE="         -0.1110"
Cr     3.48452785    0.00992280   -0.08293545       1
Cr    -0.06832876   -0.02045715    3.54338390       2
Co    -3.64911317   -0.03451491   -0.06571456       3
Ni    -0.04184233   -0.03672849   -3.60972066       4
Cr    -0.02231948   -3.60600823   -0.00966424       5
Co    -0.07105950    3.58121472   -0.05335890       6
Ni     1.66333784   -1.73032895   -0.04342323       7
Ni     1.69209378    1.74782056   -0.08386244       8
Cr    -0.07447425   -1.74467743    1.71545094       9
Co    -0.01952917    1.65853372    1.72146264      10
Co     1.77138387   -0.00225765   -1.79563145      11
Co    -1.78226712   -0.04772467    1.70228763      12
Ni    -1.77863107    0.00250468   -1.80424003      13
Ni    -0.06861632   -1.75626663   -1.79167010      14
Ni    -0.02380486    1.79617321   -1.87744366      15
Cr    -1.84040864   -1.75672189   -0.04977573      16
Ni    -1.78856440    1.72134160   -0.05291353      17
Cr     1.68290081    0.01244617    1.71904351      18
