          18
Lattice="  24.8920   0.0000   0.0000   0.0000  24.8920   0.0000   0.0000   0.0000  24.8920 " ConfE="      -5944.5737" DelE="          0.0000"
Ni     0.01446634    3.49034646   -0.01949577       1
Ni     3.43987165   -0.03474650   -0.01390039       2
Co    -0.08197925   -3.60913087    0.05099998       3
Ni    -3.58729573   -0.01785295    0.01444261       4
Cr    -0.01490897   -0.02220036   -3.58341440       5
Ni    -0.05939122   -0.03332697    3.55936602       6
Ni     0.02521005    1.74458528   -1.77908289       7
Cr     0.01206009    1.75971493    1.77243312       8
Cr     1.74815766    0.04826815   -1.78625191       9
Co     1.68848953    0.06150473    1.79463102      10
Ni    -1.82172645    1.74300651    0.00373618      11
Ni     1.71006026   -1.82483563    0.00295391      12
Co    -1.80263626   -1.80216374    0.03987526      13
Ni    -1.79327549   -0.03632419   -1.77563947      14
Cr    -1.80757019    0.06032744    1.80836641      15
Ni    -0.02341320   -1.79531632   -1.77672602      16
Ni    -0.04290279   -1.80480867    1.77643479      17
Ni     0.00000000    0.00000000    0.00000000      18
          18
Lattice="  24.8920   0.0000   0.0000   0.0000  24.8920   0.0000   0.0000   0.0000  24.8920 " ConfE="      -5943.9963" DelE="          0.5775"
Ni     0.00009216    3.47396633   -0.02044758       1
Ni     3.39063541   -0.01610970   -0.01264498       2
Co    -0.07840876   -3.60810239    0.04917727       3
Ni    -3.58873873   -0.01508177    0.01380495       4
Cr    -0.02766207   -0.03099318   -3.64965944       5
Ni    -0.08067471   -0.04371710    3.59863525       6
Ni    -0.02921665    1.77333018   -1.90838903       7
Cr    -0.07728910    1.79509104    1.92691122       8
Cr     1.74525263    0.04141826   -1.92539122       9
Co     1.77204919   -0.07360450    2.01887655      10
Ni    -1.77036431    1.70520855   -0.00419745      11
Ni     1.67437622   -1.76541426   -0.01149398      12
Co    -1.76344934   -1.75959072    0.03469385      13
Ni    -1.77825815   -0.03174921   -1.78708059      14
Cr    -1.76140447    0.03987638    1.77217637      15
Ni    -0.02147463   -1.76296768   -1.78897153      16
Ni    -0.03726537   -1.77930979    1.76543204      17
Ni     0.64037554    0.61698187    0.07216517      18
          18
Lattice="  24.8920   0.0000   0.0000   0.0000  24.8920   0.0000   0.0000   0.0000  24.8920 " ConfE="      -5944.7181" DelE="         -0.1443"
Ni    -0.03158474    3.52852919   -0.02178779       1
Ni     3.48131609   -0.06401933   -0.01683766       2
Co    -0.08643173   -3.62010836    0.05407598       3
Ni    -3.60634108   -0.02436153    0.01712479       4
Cr    -0.02231144   -0.03826104   -3.62949437       5
Ni    -0.07453062   -0.03902308    3.58023021       6
Ni    -0.02669029    1.70249838   -1.79565639       7
Cr    -0.05320067    1.72860121    1.77281937       8
Cr     1.70190547   -0.01146981   -1.80356309       9
Co     1.65605306    0.01388910    1.79657344      10
Ni    -1.78488761    1.69987805    0.00811505      11
Ni     1.67656298   -1.77454168    0.00296060      12
Co    -1.79169830   -1.78271975    0.04306656      13
Ni    -1.77660144   -0.05346220   -1.75782736      14
Cr    -1.80403445    0.03712087    1.79424474      15
Ni    -0.02776869   -1.77588365   -1.75993192      16
Ni    -0.05942077   -1.78267886    1.75964028      17
Ni     1.67279871    1.68850506   -0.01553742      18
