          18
Lattice="  24.8920   0.0000   0.0000   0.0000  24.8920   0.0000   0.0000   0.0000  24.8920 " ConfE="      -5937.9773" DelE="          0.0000"
Ni     0.09214057    3.49067503    0.03359687       1
Ni     3.48052188   -0.00441276    0.04070054       2
Ni    -0.04017042   -3.56835825    0.01922165       3
Cr    -3.56414081   -0.00259275   -0.02690597       4
Cr    -0.04102495   -0.01792417   -3.53773237       5
Co    -0.03082954   -0.03392577    3.59957532       6
Cr     0.00346552    1.73908436   -1.74189372       7
Co    -0.00106086    1.76392843    1.81327569       8
Ni     1.71448556   -0.02090173   -1.75245973       9
Ni     1.73939662   -0.00710985    1.78940054      10
Co    -1.82818314    1.75598521    0.02869548      11
Ni     1.75619662   -1.82913876    0.03047638      12
Co    -1.85695154   -1.78550273    0.00777679      13
Co    -1.78268385    0.00770067   -1.78500276      14
Ni    -1.78356026   -0.02728189    1.76508179      15
Ni    -0.03665306   -1.80520669   -1.76018093      16
Ni    -0.01924723   -1.80274737    1.80125993      17
Ni     0.00000000    0.00000000    0.00000000      18
          18
Lattice="  24.8920   0.0000   0.0000   0.0000  24.8920   0.0000   0.0000   0.0000  24.8920 " ConfE="      -5937.5187" DelE="          0.4586"
Ni     0.10611207    3.42413135    0.01606929       1
Ni     3.45471913    0.00794346    0.03860450       2
Ni    -0.02998513   -3.56312989    0.02148229       3
Cr    -3.57785451    0.02702806   -0.03958688       4
Cr    -0.04684835   -0.05885781   -3.58171932       5
Co    -0.04092283   -0.04410563    3.64441215       6
Cr    -0.04481647    1.78533344   -1.96469144       7
Co    -0.05252025    1.82706860    1.99607056       8
Ni     1.74599589   -0.05700099   -1.87836148       9
Ni     1.74678123   -0.03374127    1.89730372      10
Co    -1.79285563    1.75876900    0.00954901      11
Ni     1.70537603   -1.74228454    0.02883946      12
Co    -1.83256127   -1.75461258    0.00821364      13
Co    -1.72441810    0.03172543   -1.75850001      14
Ni    -1.73237494    0.00190870    1.72535545      15
Ni    -0.03326539   -1.77380766   -1.74825171      16
Ni    -0.02324797   -1.78443994    1.80053977      17
Ni     0.52485671    0.69006706   -0.01223030      18
          18
Lattice="  24.8920   0.0000   0.0000   0.0000  24.8920   0.0000   0.0000   0.0000  24.8920 " ConfE="      -5938.2804" DelE="         -0.3031"
Ni     0.03138730    3.55732273    0.04664640       1
Ni     3.50917483   -0.03933648    0.03693844       2
Ni    -0.04005785   -3.58760436    0.01857751       3
Cr    -3.57804452    0.01119383   -0.03591707       4
Cr    -0.05246618   -0.02808371   -3.56638554       5
Co    -0.03704949   -0.04039982    3.62221555       6
Cr    -0.05517705    1.71460057   -1.74118688       7
Co    -0.03665343    1.76339674    1.84209118       8
Ni     1.66735699   -0.03797272   -1.73545301       9
Ni     1.70622438   -0.03790708    1.79867392      10
Co    -1.76044719    1.73541528    0.01438042      11
Ni     1.71810854   -1.79757530    0.03514991      12
Co    -1.84259957   -1.77571591    0.00727341      13
Co    -1.73500302    0.01658443   -1.75156956      14
Ni    -1.75645615   -0.02245438    1.72229049      15
Ni    -0.04532521   -1.78265862   -1.73103461      16
Ni    -0.03226390   -1.79172086    1.78070504      17
Ni     1.66842322    1.69541471    0.03464979      18
