          18
Lattice="  24.8920   0.0000   0.0000   0.0000  24.8920   0.0000   0.0000   0.0000  24.8920 " ConfE="      -5938.3950" DelE="          0.0000"
Co     3.48366706   -0.08600827   -0.01370227       1
Cr    -0.05679658   -0.04678063    3.56404439       2
Cr    -0.02268840    0.00280837   -3.53983171       3
Cr    -3.57408250    0.00406753   -0.01906932       4
Co    -0.03915282   -3.58533641   -0.00785604       5
Co    -0.06255106    3.54341266   -0.00155870       6
Ni     0.01590624   -1.72114049    1.76941019       7
Ni     1.74786729    1.73565710   -0.01498975       8
Ni    -0.01870338    1.73529953    1.77368554       9
Co     1.78069456   -1.82502879   -0.00714750      10
Ni    -1.78839632   -0.00236021   -1.77055975      11
Ni    -0.00247671    1.75811431   -1.78576218      12
Co     1.77845010   -0.09443241   -1.85796827      13
Cr    -1.84963811    0.00220084    1.77084285      14
Co    -0.00073815   -1.82208286   -1.80553925      15
Co    -1.80442768   -1.77066774   -0.00865304      16
Cr    -1.79112785    1.87199650   -0.03229684      17
Ni     0.00000000    0.00000000    0.00000000      18
          18
Lattice="  24.8920   0.0000   0.0000   0.0000  24.8920   0.0000   0.0000   0.0000  24.8920 " ConfE="      -5937.8465" DelE="          0.5485"
Co     3.45250215   -0.08303436   -0.01165770       1
Cr    -0.02484518   -0.06513074    3.48673647       2
Cr    -0.01606401    0.00816677   -3.54659042       3
Cr    -3.59058108   -0.00283312   -0.00147311       4
Co    -0.04747477   -3.64171068   -0.02163511       5
Co    -0.06429916    3.59529750   -0.01229006       6
Ni    -0.05119044   -1.95713335    1.81045160       7
Ni     1.77198417    1.86813320   -0.05796856       8
Ni    -0.03683732    1.88949098    1.79385982       9
Co     1.82504680   -1.99046016   -0.08126410      10
Ni    -1.74289379    0.00219646   -1.71572478      11
Ni    -0.00193177    1.75033205   -1.75308006      12
Co     1.74542385   -0.09348870   -1.80672432      13
Cr    -1.72636826   -0.00143509    1.71054321      14
Co     0.00791745   -1.81615423   -1.78014684      15
Co    -1.76421352   -1.75274832    0.00606720      16
Cr    -1.75915225    1.82412242    0.00277578      17
Ni     0.68436992   -0.06995598    0.69247628      18
          18
Lattice="  24.8920   0.0000   0.0000   0.0000  24.8920   0.0000   0.0000   0.0000  24.8920 " ConfE="      -5938.3958" DelE="         -0.0009"
Co     3.53031849   -0.08087169   -0.05486841       1
Cr    -0.07366378   -0.06213377    3.58811347       2
Cr    -0.02556139    0.01099554   -3.54159727       3
Cr    -3.60188482    0.00377384   -0.01639916       4
Co    -0.05115749   -3.61064453   -0.01798900       5
Co    -0.07052300    3.56891766   -0.00416097       6
Ni    -0.02085490   -1.74676198    1.72474171       7
Ni     1.72304357    1.72175675   -0.03761656       8
Ni    -0.04043452    1.73446048    1.73594903       9
Co     1.75940665   -1.83575835   -0.05327708      10
Ni    -1.76351805    0.00023294   -1.73713228      11
Ni    -0.01646217    1.72596459   -1.74288118      12
Co     1.75187449   -0.09476322   -1.81734380      13
Cr    -1.78376453    0.00115228    1.71202125      14
Co    -0.00145343   -1.80378635   -1.79966677      15
Co    -1.78067284   -1.72735221   -0.01048687      16
Cr    -1.79705740    1.82337679   -0.01391652      17
Ni     1.71245506   -0.03242734    1.72286207      18
