          18
Lattice="  24.8920   0.0000   0.0000   0.0000  24.8920   0.0000   0.0000   0.0000  24.8920 " ConfE="      -5949.4820" DelE="          0.0000"
Ni    -3.48227500   -0.03288877   -0.01175189       1
Cr     0.02367155    3.53895964   -0.01855070       2
Co     3.57485393   -0.08025983    0.01713973       3
Cr     0.00867820   -3.63661275    0.02850631       4
Co     0.01419983   -0.06381196   -3.54452378       5
Co     0.02803076   -0.05597463    3.51169218       6
Ni     0.04457237    1.76058579   -1.75258622       7
Ni    -0.01315933    1.74735445    1.73528268       8
Cr    -1.67824207    0.02067248   -1.74683063       9
Cr    -1.77690007   -0.01778448    1.74966297      10
Co     1.84223331    1.72534924    0.01377102      11
Cr    -1.73010886   -1.87751909   -0.02346475      12
Cr     1.80772410   -1.74788125   -0.02137885      13
Co     0.04743640   -1.86593162   -1.76265939      14
Co     0.01726359   -1.83589590    1.74740360      15
Co     1.79251878   -0.06712921   -1.73768455      16
Cr     1.81308280   -0.03186677    1.72936826      17
Ni     0.00000000    0.00000000    0.00000000      18
          18
Lattice="  24.8920   0.0000   0.0000   0.0000  24.8920   0.0000   0.0000   0.0000  24.8920 " ConfE="      -5948.9408" DelE="          0.5412"
Ni    -3.37056442   -0.04673324    0.01458520       1
Cr     0.00995340    3.45539976   -0.00044904       2
Co     3.56433825   -0.07652882    0.02608666       3
Cr    -0.01003471   -3.67218340    0.02310876       4
Co     0.01978621   -0.07153801   -3.59169451       5
Co     0.02935935   -0.06888729    3.58092826       6
Ni     0.06911081    1.77255575   -1.87811362       7
Ni     0.05678960    1.78669505    1.93161690       8
Cr    -1.67167915   -0.06625979   -1.92441311       9
Cr    -1.81972855   -0.01273347    2.00585221      10
Co     1.77421681    1.69353943    0.02807686      11
Cr    -1.57985467   -1.81158792   -0.01355237      12
Cr     1.59028556   -1.60979361   -0.03073564      13
Co     0.04021273   -1.87834437   -1.79996953      14
Co    -0.01188701   -1.80201250    1.76646747      15
Co     1.73013264   -0.05884669   -1.71328400      16
Cr     1.73764384   -0.00838830    1.69632435      17
Ni    -0.68562875    0.64083714    0.05095002      18
          18
Lattice="  24.8920   0.0000   0.0000   0.0000  24.8920   0.0000   0.0000   0.0000  24.8920 " ConfE="      -5949.5528" DelE="         -0.0708"
Ni    -3.49838472   -0.06688636   -0.00911333       1
Cr     0.02681074    3.58703235   -0.01917351       2
Co     3.57703246   -0.07534640    0.01946039       3
Cr     0.01432439   -3.68098852    0.01401775       4
Co     0.02251964   -0.06264418   -3.57678655       5
Co     0.03098499   -0.05834638    3.55343039       6
Ni     0.05274415    1.75407325   -1.75591884       7
Ni     0.01173344    1.72780116    1.75955649       8
Cr    -1.58723007   -0.07130402   -1.73422490       9
Cr    -1.71081807   -0.08796562    1.74702843      10
Co     1.78300331    1.69960787    0.02521135      11
Cr    -1.56719648   -1.77715166   -0.01775546      12
Cr     1.63817469   -1.63027516   -0.03489815      13
Co     0.06894651   -1.87667141   -1.78680118      14
Co     0.03221858   -1.81755380    1.74827956      15
Co     1.74011752   -0.05920631   -1.69545568      16
Cr     1.74687281   -0.00930945    1.68050359      17
Ni    -1.70458839    1.71251647    0.00247112      18
