          18
Lattice="  24.8920   0.0000   0.0000   0.0000  24.8920   0.0000   0.0000   0.0000  24.8920 " ConfE="      -5924.4224" DelE="          0.0000"
Co    -0.02784258    3.49607667    0.05123373       1
Co     0.04457740   -0.03535833   -3.44116338       2
Ni    -0.01469154   -3.60563215    0.05369087       3
Co    -3.55766167   -0.01933758   -0.01182197       4
Co    -0.03567768   -0.03548010    3.60046708       5
Co     3.56707911   -0.02332429    0.06151795       6
Ni    -1.75367138    1.71450196    0.00369823       7
Ni     0.01439359   -1.84428782   -1.72763639       8
Cr    -1.73471834   -0.01803221   -1.80309579       9
Ni     1.76377623   -1.82677433    0.05884672      10
Cr     1.79588200    0.01965273   -1.67450614      11
Cr     1.75682836    1.69486781    0.08001858      12
Co    -0.02126978    1.70945398    1.85118929      13
Cr    -1.81173924   -1.73748620   -0.05093611      14
Co    -0.07593718   -1.78848104    1.78182519      15
Cr    -1.73548039   -0.04145429    1.78468424      16
Co     1.75815607   -0.00533650    1.79041887      17
Ni     0.00000000    0.00000000    0.00000000      18
          18
Lattice="  24.8920   0.0000   0.0000   0.0000  24.8920   0.0000   0.0000   0.0000  24.8920 " ConfE="      -5923.2783" DelE="          1.1441"
Co    -0.03747668    3.52421240    0.02784075       1
Co     0.06598592   -0.05215330   -3.45200594       2
Ni    -0.00972534   -3.65538577    0.03138400       3
Co    -3.59044246   -0.01801937    0.01712400       4
Co    -0.02192407   -0.03570756    3.51962434       5
Co     3.50624963   -0.06203153    0.14550068       6
Ni    -1.85609832    1.77522318    0.06560528       7
Ni     0.01722026   -1.74782877   -1.65929337       8
Cr    -1.97126425   -0.10443510   -1.75057941       9
Ni     1.80291770   -1.97186264    0.03011877      10
Cr     1.96826865   -0.09221426   -1.61606527      11
Cr     1.85345452    1.77699225    0.11020552      12
Co    -0.07243737    1.83760554    1.83891244      13
Cr    -1.69959821   -1.66196790    0.01143828      14
Co    -0.12193348   -1.93494247    1.77566942      15
Cr    -1.64311128   -0.00580126    1.68410411      16
Co     1.03124800   -0.03792672    1.08709951      17
Ni    -0.01227560    0.95410375   -1.12597687      18
          18
Lattice="  24.8920   0.0000   0.0000   0.0000  24.8920   0.0000   0.0000   0.0000  24.8920 " ConfE="      -5924.5144" DelE="         -0.0920"
Co    -0.02340331    3.51593520    0.06909279       1
Co     0.04854201   -0.06266481   -3.49911934       2
Ni     0.00235898   -3.60523730    0.06743796       3
Co    -3.58020107   -0.02414302    0.00104076       4
Co    -0.02696655   -0.02717818    3.58812826       5
Co     3.53925925   -0.03118177    0.10775084       6
Ni    -1.76224918    1.70777963    0.04497273       7
Ni     0.02431704   -1.83314030   -1.72250626       8
Cr    -1.75821637   -0.06546967   -1.74821250       9
Ni     1.77435367   -1.80663060    0.10982760      10
Cr     1.81274476   -0.03606272   -1.68263174      11
Cr     1.74649318    1.63301104    0.14292450      12
Co     0.05027275    1.66402945    1.81151671      13
Cr    -1.78621427   -1.75851603   -0.01274648      14
Co    -0.07262634   -1.78183125    1.79920935      15
Cr    -1.76073776   -0.06927501    1.76202565      16
Co     0.02993134   -0.06376629    0.06420755      17
Ni     0.01983475    1.71751181   -1.71774131      18
