          18
Lattice="  24.8920   0.0000   0.0000   0.0000  24.8920   0.0000   0.0000   0.0000  24.8920 " ConfE="      -5951.2689" DelE="          0.0000"
Ni     0.04016438    0.00678420   -3.49948420       1
Ni     0.02826747    0.00443724    3.59875426       2
Ni     3.59893335    0.00998094    0.03165408       3
Co    -3.52325796    0.00854430    0.01169047       4
Co     0.06060455    3.53604706    0.06821897       5
Co     0.03025452   -3.52197512    0.08855006       6
Ni     0.03955226    1.74401739   -1.73882436       7
Ni     0.02325426   -1.76316211   -1.73280266       8
Ni    -1.75124237    1.72394693    0.02775931       9
Ni    -1.73949307   -1.75854380    0.01788216      10
Ni     0.01214772    1.74699545    1.81984209      11
Ni     1.79732606   -0.00755582    1.80460745      12
Cr     1.84641533   -0.07123627   -1.75457975      13
Cr    -0.00903222   -1.74943227    1.84361391      14
Cr     1.81462173    1.74719435    0.02450533      15
Co     1.78915244   -1.72034086    0.03201500      16
Cr    -1.79041349   -0.04047997    1.83141320      17
Ni     0.00000000    0.00000000    0.00000000      18
          18
Lattice="  24.8920   0.0000   0.0000   0.0000  24.8920   0.0000   0.0000   0.0000  24.8920 " ConfE="      -5950.2717" DelE="          0.9972"
Ni     0.05977516    0.00502568   -3.45262835       1
Ni     0.02078724    0.00871911    3.59292202       2
Ni     3.61207944    0.00828105    0.03625393       3
Co    -3.49449991    0.01595452    0.03429099       4
Co     0.07799174    3.60200027    0.09174070       5
Co     0.04829049   -3.57435626    0.10166791       6
Ni     0.10590596    1.88885100   -1.72745019       7
Ni     0.08364935   -1.89400707   -1.74088598       8
Ni    -1.74441375    1.86226206    0.09625947       9
Ni    -1.75177925   -1.91025240    0.07161936      10
Ni     0.02280629    1.72074505    1.77723768      11
Ni     1.77832432   -0.00115343    1.78728497      12
Cr     1.73623500   -0.04770168   -1.63016348      13
Cr    -0.02506140   -1.70205960    1.79514879      14
Cr     1.78022869    1.70042464    0.01491492      15
Co     1.72614813   -1.66611206    0.02838975      16
Cr    -1.74433505   -0.04051158    1.72140085      17
Ni    -1.15374011   -0.00988647   -1.16431731      18
          18
Lattice="  24.8920   0.0000   0.0000   0.0000  24.8920   0.0000   0.0000   0.0000  24.8920 " ConfE="      -5950.7614" DelE="          0.5075"
Ni     0.06290896    0.00390023   -3.53383859       1
Ni     0.03089651    0.01113161    3.62014654       2
Ni     3.62644709    0.00776885    0.04038146       3
Co    -3.55879717    0.00805352    0.04352150       4
Co     0.06909695    3.55269170    0.07494024       5
Co     0.03311723   -3.53727404    0.09548719       6
Ni     0.07673920    1.72101122   -1.69373508       7
Ni     0.04313523   -1.75725501   -1.71743944       8
Ni    -1.72179620    1.71510956    0.06196200       9
Ni    -1.70341305   -1.74786917    0.05043669      10
Ni     0.02622104    1.71740272    1.79560225      11
Ni     1.78124102   -0.00167998    1.79517355      12
Cr     1.79594238   -0.05620669   -1.66850321      13
Cr    -0.01696970   -1.71087541    1.84647009      14
Cr     1.81177226    1.70372496    0.02489272      15
Co     1.73354380   -1.65041865    0.02595157      16
Cr    -1.75128952   -0.03854305    1.79703196      17
Ni    -1.70061964   -0.00335882   -1.70393886      18
