          18
Lattice="  24.8920   0.0000   0.0000   0.0000  24.8920   0.0000   0.0000   0.0000  24.8920 " ConfE="      -5930.5819" DelE="          0.0000"
Ni     0.01016349    0.01160717   -3.48660602       1
Ni    -0.00072322   -3.55185961    0.03956696       2
Ni     0.01348800   -0.00153270    3.58766856       3
Co    -3.48500456    0.03973455    0.00910295       4
Cr     0.00138685    3.52609115    0.04267963       5
Cr     3.54629317   -0.01323444    0.05431976       6
Ni    -1.75035091   -1.75122079    0.00312235       7
Co    -0.00161605    1.78340467   -1.72359641       8
Cr    -1.79602950    1.67307407   -0.06074594       9
Co     0.01190023   -1.76783070   -1.77430118      10
Co     1.82338706    0.02230276   -1.73096547      11
Cr     1.79874298    1.80195330    0.03962534      12
Co    -0.00360873    1.77627050    1.77826072      13
Cr     1.76586327   -1.77824004   -0.00322549      14
Co     1.78147250    0.01823145    1.78378307      15
Cr    -1.77620620    0.02024190    1.82267641      16
Co     0.00258757   -1.76577419    1.80597445      17
Ni     0.00000000    0.00000000    0.00000000      18
          18
Lattice="  24.8920   0.0000   0.0000   0.0000  24.8920   0.0000   0.0000   0.0000  24.8920 " ConfE="      -5929.8867" DelE="          0.6952"
Ni     0.01237637    0.02720101   -3.45858515       1
Ni     0.02196527   -3.61422512    0.05851491       2
Ni     0.00049054   -0.00914575    3.57666280       3
Co    -3.47777830    0.03300587    0.01289794       4
Cr     0.11068389    3.59264058    0.09415495       5
Cr     3.56389370    0.00945402    0.04332713       6
Ni    -1.78383890   -1.90651656    0.05606679       7
Co     0.08176949    1.96027901   -1.74984326       8
Cr    -1.78055572    1.92943362    0.04743830       9
Co     0.09240924   -1.89059861   -1.74382525      10
Co     1.75829007    0.03329883   -1.70888899      11
Cr     1.70114585    1.69056050   -0.00140241      12
Co    -0.01129990    1.75208869    1.73229715      13
Cr     1.70129324   -1.66233726    0.00312505      14
Co     1.73334269    0.02508051    1.73537548      15
Cr    -1.72782306    0.02076183    1.69031348      16
Co     0.00047800   -1.73215995    1.74011440      17
Ni    -1.07202044    0.04587447   -1.04727121      18
          18
Lattice="  24.8920   0.0000   0.0000   0.0000  24.8920   0.0000   0.0000   0.0000  24.8920 " ConfE="      -5930.3901" DelE="          0.1918"
Ni     0.03153510   -0.01355778   -3.54702751       1
Ni     0.02363145   -3.54552401    0.04563177       2
Ni     0.01406054   -0.00810798    3.62246965       3
Co    -3.51836498    0.04032793    0.04847858       4
Cr     0.10960438    3.56238957    0.08431627       5
Cr     3.55787725    0.07355949    0.04253638       6
Ni    -1.71510041   -1.73583461    0.03244346       7
Co     0.02267008    1.77012339   -1.74282787       8
Cr    -1.55718047    1.64585061    0.02531314       9
Co     0.05676583   -1.76792847   -1.73757302      10
Co     1.77036934    0.01004679   -1.73650745      11
Cr     1.58365472    1.59639194    0.01686537      12
Co     0.00579298    1.74513964    1.79979134      13
Cr     1.71259166   -1.61797606    0.02089046      14
Co     1.75283199    0.02078001    1.77437827      15
Cr    -1.74878153    0.00845974    1.79661951      16
Co     0.01544090   -1.71912780    1.77760735      17
Ni    -1.71865472   -0.00734083   -1.72528242      18
