          18
Lattice="  24.8920   0.0000   0.0000   0.0000  24.8920   0.0000   0.0000   0.0000  24.8920 " ConfE="      -5923.4131" DelE="          0.0000"
Ni    -0.05677581   -3.45324858    0.00546692       1
Ni    -0.01403870   -0.05149415   -3.42296949       2
Co    -3.57636773    0.03226278    0.07955045       3
Co     3.51996853    0.02353167    0.09833108       4
Cr    -0.04881308    3.56486787    0.06848270       5
Cr     0.02149078    0.08369213    3.64316255       6
Ni    -1.79513471   -1.75348689    0.02137816       7
Ni    -0.04170443   -1.74207659    1.86930693       8
Co    -1.76506436    0.01736778   -1.69870146       9
Co     1.75298286   -0.01906209   -1.70932287      10
Co     1.71412829   -1.69109364    0.06297958      11
Ni    -1.79627893    0.02586522    1.84157013      12
Cr    -0.02436151    1.81565477   -1.70447894      13
Cr     1.77966510    1.71994696    0.04478981      14
Co    -0.02123943    1.79202780    1.79670764      15
Cr    -1.87822573    1.78807491    0.01214392      16
Co     1.74694526    0.03053575    1.85960425      17
Cr     0.00000000    0.00000000    0.00000000      18
          18
Lattice="  24.8920   0.0000   0.0000   0.0000  24.8920   0.0000   0.0000   0.0000  24.8920 " ConfE="      -5918.7654" DelE="          4.6476"
Ni    -0.04879562   -3.45365744   -0.03776775       1
Ni    -0.02632733   -0.02532632   -3.42004727       2
Co    -3.65644530    0.04212298    0.03489245       3
Co     3.58681190    0.03386743    0.01968851       4
Cr    -0.06575603    3.61173449    0.05821905       5
Cr     0.07057450    0.08554249    3.55660143       6
Ni    -1.94793224   -1.76942417   -0.21194077       7
Ni     1.46029720   -1.64269239    2.56682761       8
Co    -1.82915715    0.10398715   -1.71570062       9
Co     0.54832736   -0.21279272   -0.97094953      10
Co     1.85691989   -1.81080312    0.08058209      11
Ni    -1.87370928    0.10643619    1.76538683      12
Cr    -0.05169867    1.84317888   -1.68938545      13
Cr     1.79532567    1.83405786   -0.13680757      14
Co    -0.07284637    1.81940039    1.69649433      15
Cr    -1.89630646    1.80442914   -0.06456150      16
Co     1.70328513    0.30018033    1.43784136      17
Cr    -0.25444000   -1.38776293    1.17913382      18
          18
Lattice="  24.8920   0.0000   0.0000   0.0000  24.8920   0.0000   0.0000   0.0000  24.8920 " ConfE="      -5919.2378" DelE="          4.1753"
Ni    -0.06288765   -3.44781731   -0.06217058       1
Ni     0.09737642   -0.14872153   -3.25844353       2
Co    -3.62382920    0.03744773    0.05569261       3
Co     3.56212319    0.03441682    0.01958389       4
Cr    -0.04770934    3.54757066    0.05989394       5
Cr     0.08122342    0.03028317    3.58077290       6
Ni    -1.82761055   -1.73004613   -0.07168547       7
Ni     1.81648619   -1.68767734    2.77481435       8
Co    -1.85284829    0.05888090   -1.75559361       9
Co    -0.01670561    0.08497064   -0.08811728      10
Co     1.71528747   -1.65828748   -0.01298298      11
Ni    -1.82041204    0.05112376    1.79508678      12
Cr    -0.00777778    1.78285912   -1.68160837      13
Cr     1.80090644    1.73265124   -0.07307024      14
Co    -0.05161543    1.81248557    1.76913686      15
Cr    -1.90724713    1.80832110   -0.02966686      16
Co     1.75796029    0.24752484    1.61253004      17
Cr    -0.17006018   -1.70088854    1.64337689      18
