          18
Lattice="  24.8920   0.0000   0.0000   0.0000  24.8920   0.0000   0.0000   0.0000  24.8920 " ConfE="      -5923.1643" DelE="          0.0000"
Ni    -0.02983757   -0.05340878   -3.52682835       1
Co    -0.01800092    3.43354062   -0.05551581       2
Cr    -0.01676529   -0.03947741    3.54393933       3
Co    -0.00514303   -3.53095439   -0.01169759       4
Co    -3.54988272   -0.01561567   -0.01025861       5
Cr     3.50178809   -0.06828180    0.16657155       6
Ni    -1.75599999   -0.01551809   -1.75779876       7
Co     1.78656681    0.00458332   -1.77732526       8
Cr    -1.75476459    1.74388256   -0.03316511       9
Co     1.77343393    1.74441484   -0.03018003      10
Cr     0.04572779   -1.81891008   -1.73575020      11
Co    -0.03059236    1.73472115    1.82097256      12
Co    -0.01480126   -1.78634352    1.80886165      13
Ni    -1.77646208   -1.80393497    0.00159020      14
Co     1.77875270   -1.78874355    0.01981986      15
Cr    -1.80115650   -0.00436476    1.76717881      16
Co     1.74491566   -0.03182951    1.80187782      17
Ni     0.00000000    0.00000000    0.00000000      18
          18
Lattice="  24.8920   0.0000   0.0000   0.0000  24.8920   0.0000   0.0000   0.0000  24.8920 " ConfE="      -5922.5617" DelE="          0.6026"
Ni    -0.02809680   -0.04771460   -3.48496051       1
Co    -0.00626785    3.40613681   -0.06960776       2
Cr    -0.01154465   -0.02374127    3.53692126       3
Co    -0.01650140   -3.53639207   -0.01040331       4
Co    -3.59701364   -0.03075445   -0.00000455       5
Cr     3.58254208   -0.09480359    0.16606580       6
Ni    -1.92288439   -0.07347861   -1.81198284       7
Co     2.00936348   -0.04966175   -1.82334756       8
Cr    -1.93213519    1.73986367   -0.01019724       9
Co     1.98678128    1.78231578    0.02406131      10
Cr     0.06528704   -1.72751492   -1.65613677      11
Co    -0.03068390    1.69137584    1.71790610      12
Co    -0.02842408   -1.72613231    1.75526536      13
Ni    -1.78436032   -1.78222740   -0.00478453      14
Co     1.73382979   -1.73937505   -0.00105185      15
Cr    -1.73906386    0.00202367    1.70880464      16
Co     1.73321230   -0.01723064    1.74948039      17
Ni     0.03487971    0.78217841   -0.82460100      18
          18
Lattice="  24.8920   0.0000   0.0000   0.0000  24.8920   0.0000   0.0000   0.0000  24.8920 " ConfE="      -5923.0648" DelE="          0.0995"
Ni    -0.01809846   -0.07261260   -3.55590381       1
Co    -0.00504004    3.51386282   -0.00692892       2
Cr    -0.00937780   -0.03925679    3.56391406       3
Co    -0.01020061   -3.55894597   -0.00586226       4
Co    -3.56851994   -0.02787348   -0.00278326       5
Cr     3.52124039   -0.06846118    0.18316893       6
Ni    -1.74125797   -0.06734706   -1.72059381       7
Co     1.80042702   -0.03742678   -1.74951770       8
Cr    -1.74836655    1.69603230    0.02513381       9
Co     1.77550438    1.71370367    0.00191627      10
Cr     0.09293791   -1.76529317   -1.67566666      11
Co    -0.05127249    1.68921493    1.74176620      12
Co    -0.02122882   -1.76000370    1.79325540      13
Ni    -1.73135903   -1.78024485    0.01569093      14
Co     1.71466735   -1.76304993    0.01545867      15
Cr    -1.73799825   -0.02636258    1.74948999      16
Co     1.70465376   -0.03626827    1.76803552      17
Ni    -0.00737683    1.67189118   -1.73003548      18
