          18
Lattice="  24.8920   0.0000   0.0000   0.0000  24.8920   0.0000   0.0000   0.0000  24.8920 " ConfE="      -5943.3826" DelE="          0.0000"
Ni    -3.39090840   -0.02804030    0.05137536       1
Cr     0.04284498    3.50682235    0.05486465       2
Cr     3.76485246   -0.08350447    0.03455792       3
Co     0.15793863   -3.56198178    0.07929032       4
Ni     0.06557341   -0.01950451    3.60417613       5
Co     0.08755478   -0.00598563   -3.45290597       6
Co    -1.67764650    0.00872917    1.79837461       7
Cr    -1.61620966    0.03972822   -1.70597806       8
Ni     0.05930892    1.74078326    1.78268246       9
Co     0.06472523    1.76960430   -1.64685115      10
Ni    -1.65303742   -1.80937127    0.02105708      11
Ni     1.92203007    1.74036982    0.07233822      12
Cr     1.86967960   -1.74926345   -0.01022942      13
Ni     0.08355356   -1.78207834    1.81375493      14
Co     0.14765318   -1.76694284   -1.69983276      15
Ni     1.87842643   -0.02368123    1.80500490      16
Co     1.88876688    0.01513071   -1.69626171      17
Cr     0.00000000    0.00000000    0.00000000      18
          18
Lattice="  24.8920   0.0000   0.0000   0.0000  24.8920   0.0000   0.0000   0.0000  24.8920 " ConfE="      -5942.8125" DelE="          0.5701"
Ni    -3.37709515   -0.00803546    0.05427041       1
Cr     0.11097731    3.51363503    0.06915739       2
Cr     3.71342682   -0.09359320    0.03762296       3
Co     0.14501278   -3.55865100    0.08138154       4
Ni     0.07080155   -0.02825418    3.65605117       5
Co     0.10719627   -0.02087270   -3.51424039       6
Co    -1.70162200    0.00269852    1.90656310       7
Cr    -1.67177941    0.02183620   -1.88557891       8
Ni     0.11057923    1.73540148    1.88686970       9
Co     0.17496626    1.79131724   -1.78414939      10
Ni    -1.62552766   -1.71738679    0.01090227      11
Ni     1.86310590    1.71212600    0.07700575      12
Cr     1.77865960   -1.66754675   -0.03612465      13
Ni     0.06978772   -1.73131830    1.79518571      14
Co     0.13384063   -1.68750436   -1.66889799      15
Ni     1.85767070   -0.02614792    1.81053271      16
Co     1.85852325    0.00884538   -1.68351851      17
Cr    -0.77724499    0.74314743   -0.04056002      18
          18
Lattice="  24.8920   0.0000   0.0000   0.0000  24.8920   0.0000   0.0000   0.0000  24.8920 " ConfE="      -5943.2364" DelE="          0.1462"
Ni    -3.44533788   -0.03324033    0.05351166       1
Cr     0.08660281    3.54934812    0.06614631       2
Cr     3.75190827   -0.09363468    0.03124447       3
Co     0.16391653   -3.57738876    0.08422115       4
Ni     0.08443577   -0.03230650    3.63133194       5
Co     0.10013383   -0.01632273   -3.49318665       6
Co    -1.67773634    0.01726661    1.82105870       7
Cr    -1.59302355    0.03827147   -1.71181209       8
Ni     0.10813616    1.71295131    1.79681248       9
Co     0.09961942    1.73161557   -1.65432176      10
Ni    -1.59826523   -1.69791514    0.00621876      11
Ni     1.90166406    1.72649161    0.07248578      12
Cr     1.83043021   -1.70689946   -0.03795146      13
Ni     0.09746507   -1.76107009    1.79798087      14
Co     0.16845919   -1.73595005   -1.68050162      15
Ni     1.88563335   -0.03438473    1.79441348      16
Co     1.86790846    0.00093317   -1.67397881      17
Cr    -1.60682717    1.71539330    0.03511551      18
