          18
Lattice="  24.8920   0.0000   0.0000   0.0000  24.8920   0.0000   0.0000   0.0000  24.8920 " ConfE="      -5937.0795" DelE="          0.0000"
Ni    -0.01149996    0.03196306    3.44224942       1
Ni    -0.02150305    3.49205082   -0.00261134       2
Ni    -0.00012348   -0.03091035   -3.63824339       3
Ni    -0.02724362   -3.58136224   -0.07869310       4
Co    -3.55590016    0.00734851   -0.04958721       5
Cr     3.52355072    0.00804997   -0.02953631       6
Ni    -1.75527427    0.02327020    1.69305376       7
Cr     1.73636261    0.05431529    1.70032051       8
Ni    -1.75789594    1.76196746   -0.04183980       9
Co     1.69957485    1.69177973    0.01354661      10
Co    -0.03211539   -1.82187380    1.70451409      11
Co     0.01076785    1.75212263   -1.85634301      12
Ni    -0.00501826   -1.79228936   -1.84988149      13
Co    -1.80184481   -1.81146694   -0.04380284      14
Ni     1.73323449   -1.79242122   -0.06711772      15
Ni    -1.76823157   -0.00368312   -1.82910381      16
Co     1.77801970    0.00531784   -1.80203010      17
Cr     0.00000000    0.00000000    0.00000000      18
          18
Lattice="  24.8920   0.0000   0.0000   0.0000  24.8920   0.0000   0.0000   0.0000  24.8920 " ConfE="      -5933.1718" DelE="          3.9076"
Ni    -0.72108675    0.34004532    2.96584926       1
Ni    -0.00731781    3.54756505   -0.01982135       2
Ni    -0.00762866   -0.03604259   -3.61045789       3
Ni    -0.01761321   -3.66597019   -0.09916222       4
Co    -3.52871592    0.01301038   -0.03055660       5
Cr     3.50935046   -0.00397526   -0.00359462       6
Ni    -1.13595236   -0.03839803    0.71876194       7
Cr     1.41235651   -0.47482806    2.97858686       8
Ni    -1.80517856    1.94967317   -0.11783187       9
Co     1.83211717    1.96308699   -0.25872718      10
Co    -0.02893031   -1.96129652    1.74340836      11
Co    -0.00331748    1.76111182   -1.85407038      12
Ni    -0.02234563   -1.79639512   -1.79433854      13
Co    -1.88538180   -2.06358657   -0.07610056      14
Ni     1.68749666   -1.79485872   -0.01896763      15
Ni    -1.75382671    0.00103232   -1.77848940      16
Co     1.73753001    0.02225411   -1.70945444      17
Cr     1.09813208    0.37707374    1.00789715      18
          18
Lattice="  24.8920   0.0000   0.0000   0.0000  24.8920   0.0000   0.0000   0.0000  24.8920 " ConfE="      -5937.0958" DelE="         -0.0164"
Ni    -1.75008189    0.02354859    1.70360553       1
Ni    -0.02742145    3.49434983   -0.00849395       2
Ni     0.00238467   -0.02628362   -3.63819209       3
Ni    -0.02612468   -3.57516436   -0.07940957       4
Co    -3.57073008    0.01046344   -0.04813510       5
Cr     3.51103605    0.02240738   -0.02587053       6
Ni     0.00580194    0.02986027   -0.02832306       7
Cr     0.04567686    0.06582490    3.42331135       8
Ni    -1.77901432    1.77506408   -0.06018223       9
Co     1.76909769    1.75779486   -0.05593167      10
Co    -0.02778479   -1.81647603    1.71818751      11
Co     0.01992105    1.77340117   -1.88578876      12
Ni    -0.00497122   -1.78423143   -1.84739968      13
Co    -1.81940719   -1.81932007   -0.03178595      14
Ni     1.73615407   -1.78451131   -0.07089847      15
Ni    -1.77664055    0.00531389   -1.83188296      16
Co     1.80676757    0.01381528   -1.81466622      17
Cr     1.74624566    0.05273061    1.70311893      18
