          18
Lattice="  24.8920   0.0000   0.0000   0.0000  24.8920   0.0000   0.0000   0.0000  24.8920 " ConfE="      -5941.5266" DelE="          0.0000"
Ni    -0.04379682    0.00738599   -3.45222782       1
Cr     3.34110048    0.00079543    0.01647144       2
Ni    -0.11698653    0.02118270    3.66593817       3
Ni    -3.62959607    0.03110557    0.07464477       4
Cr    -0.08028851   -3.55541200    0.04433608       5
Ni    -0.09215126    3.59286426    0.07856673       6
Cr     0.00486280   -1.76267924   -1.70868572       7
Cr    -0.03866473    1.75889433   -1.68859624       8
Cr     1.72569549   -1.78029567    0.04733815       9
Co     1.62254936    1.77542682    0.02243825      10
Co    -1.84976361   -0.00985520   -1.69219781      11
Ni     1.63930596    0.01374185    1.90104920      12
Ni    -1.85333389    0.02480125    1.82071110      13
Co    -1.81793275   -1.80073087    0.01090937      14
Co    -1.83276888    1.78692087    0.04895665      15
Co    -0.09415968   -1.79458479    1.79732497      16
Ni    -0.11675621    1.80554986    1.85889777      17
Cr     0.00000000    0.00000000    0.00000000      18
          18
Lattice="  24.8920   0.0000   0.0000   0.0000  24.8920   0.0000   0.0000   0.0000  24.8920 " ConfE="      -5940.7751" DelE="          0.7515"
Ni    -0.11198709    0.01100062   -3.42753679       1
Cr     3.39453974   -0.02695236    0.00985853       2
Ni    -0.10418476    0.02362028    3.63246430       3
Ni    -3.63804482    0.05226023    0.07283481       4
Cr    -0.10260585   -3.65197521    0.09124094       5
Ni    -0.09949837    3.66058471    0.08576084       6
Cr    -0.20550974   -1.93240355   -1.69194511       7
Cr    -0.15483578    1.93351184   -1.68217922       8
Cr     1.72249937   -1.91892807    0.03178361       9
Co     1.65194011    1.90558650    0.05887523      10
Co    -1.80814229    0.01289118   -1.64447294      11
Ni     1.60206789    0.01021085    1.74791514      12
Ni    -1.82654372    0.03797682    1.77130346      13
Co    -1.78263833   -1.78713026    0.01145747      14
Co    -1.80523606    1.81079125    0.02299667      15
Co    -0.07719803   -1.79397081    1.73547087      16
Ni    -0.11411300    1.81159105    1.80858633      17
Cr     0.76505638    0.02060009   -0.89181313      18
          18
Lattice="  24.8920   0.0000   0.0000   0.0000  24.8920   0.0000   0.0000   0.0000  24.8920 " ConfE="      -5941.1877" DelE="          0.3389"
Ni    -0.09345618    0.01045430   -3.50857321       1
Cr     3.43135667   -0.02894692    0.08656380       2
Ni    -0.12196109    0.02585084    3.67045366       3
Ni    -3.64155321    0.03512338    0.07651442       4
Cr    -0.08980892   -3.58569153    0.05574893       5
Ni    -0.10069739    3.62603145    0.09223915       6
Cr    -0.09325987   -1.75132510   -1.65062694       7
Cr    -0.13644531    1.71772825   -1.57866220       8
Cr     1.63982117   -1.78067740    0.10628930       9
Co     1.59422273    1.77458698    0.04763406      10
Co    -1.78395565   -0.00019525   -1.64998141      11
Ni     1.59786513    0.01885766    1.84027949      12
Ni    -1.85303915    0.03454538    1.80833607      13
Co    -1.80172988   -1.79866540    0.01801220      14
Co    -1.82855418    1.79849802    0.05304886      15
Co    -0.10007770   -1.78928176    1.77976368      16
Ni    -0.13385279    1.81702645    1.86144254      17
Cr     1.61911142    0.02098084   -1.63627053      18
