          18
Lattice="  24.8920   0.0000   0.0000   0.0000  24.8920   0.0000   0.0000   0.0000  24.8920 " ConfE="      -5936.2863" DelE="          0.0000"
Cr     0.00283549    3.46188774   -0.00281844       1
Cr     0.00821242   -0.01250507    3.47910747       2
Cr    -0.01539569   -3.51466503   -0.02999595       3
Co     0.01663273   -0.02757206   -3.60510899       4
Ni     3.56622833   -0.02092427   -0.05013469       5
Co    -3.54767657   -0.01350006   -0.08376677       6
Ni     1.76517559    1.73842988   -0.03651914       7
Co    -1.71924679    1.78042753   -0.05091845       8
Ni     1.76666996   -0.01139105    1.74373692       9
Ni    -1.75522543    0.00115576    1.72120366      10
Co     0.01923604    1.77460561   -1.82546870      11
Co     0.00256603   -1.79367263    1.72142702      12
Co    -0.02130284   -1.82661790   -1.81365938      13
Ni     1.77873054   -0.04103026   -1.82408501      14
Ni    -1.73992492   -0.01076983   -1.80959571      15
Co     1.77827918   -1.81099494   -0.05005560      16
Co    -1.76343875   -1.79071186   -0.07214928      17
Co     0.00000000    0.00000000    0.00000000      18
          18
Lattice="  24.8920   0.0000   0.0000   0.0000  24.8920   0.0000   0.0000   0.0000  24.8920 " ConfE="      -5935.6926" DelE="          0.5937"
Cr     0.00738519    3.38541175    0.06344482       1
Cr     0.03262896    0.03368553    3.36995382       2
Cr    -0.02035392   -3.55796045   -0.02500530       3
Co     0.02152449   -0.01691425   -3.58396432       4
Ni     3.62613286   -0.03523998   -0.06832619       5
Co    -3.60625656   -0.02171680   -0.09446868       6
Ni     1.93515720    1.77688411   -0.08030212       7
Co    -1.88560230    1.81971650   -0.08670144       8
Ni     1.93378871   -0.06070181    1.74798887       9
Ni    -1.92052557   -0.03432375    1.74858840      10
Co     0.03148335    1.77386232   -1.74462986      11
Co    -0.00777094   -1.68789511    1.68097545      12
Co    -0.02279247   -1.81827845   -1.78113858      13
Ni     1.76213784   -0.03868184   -1.77749624      14
Ni    -1.69699817    0.00331021   -1.73517069      15
Co     1.76745213   -1.79997214   -0.05012363      16
Co    -1.76546992   -1.77677805   -0.05830839      17
Co     0.00354088    0.70494989    0.65034397      18
          18
Lattice="  24.8920   0.0000   0.0000   0.0000  24.8920   0.0000   0.0000   0.0000  24.8920 " ConfE="      -5936.7293" DelE="         -0.4430"
Cr     0.02833120    3.54331018   -0.04233399       1
Cr    -0.00124486   -0.04461197    3.52067109       2
Cr    -0.02090059   -3.57425575   -0.03976422       3
Co     0.01878689   -0.02770776   -3.61533897       4
Ni     3.57767211   -0.02913199   -0.05955384       5
Co    -3.56408444   -0.01651098   -0.09184963       6
Ni     1.76118746    1.71916592   -0.05755359       7
Co    -1.73094347    1.77200784   -0.07468025       8
Ni     1.75415820   -0.03252790    1.70673729       9
Ni    -1.74126884   -0.01505008    1.67580107      10
Co     0.01375246    1.77489358   -1.78840834      11
Co    -0.00075919   -1.76169747    1.67524201      12
Co    -0.02113978   -1.84403876   -1.81083998      13
Ni     1.75199246   -0.04807385   -1.81144555      14
Ni    -1.70192215   -0.01612396   -1.77978399      15
Co     1.74947405   -1.80548624   -0.06439100      16
Co    -1.74551226   -1.78797790   -0.08594411      17
Co     0.00181494    1.76051321    1.72266648      18
