          18
Lattice="  24.8920   0.0000   0.0000   0.0000  24.8920   0.0000   0.0000   0.0000  24.8920 " ConfE="      -5949.6196" DelE="          0.0000"
Co    -0.02078504   -0.02608860   -3.51206087       1
Cr     0.05542843    3.39104554   -0.01411161       2
Co    -0.01275437   -0.06616801    3.60745922       3
Co    -0.00307908   -3.60373720    0.01779044       4
Cr    -3.53555361   -0.07213620   -0.00010736       5
Cr     3.44539053    0.03264169    0.02943148       6
Co    -1.74693763    0.01402476   -1.74980351       7
Co     1.71494544   -0.02026947   -1.76721052       8
Co    -1.74874027    1.73126002   -0.00690066       9
Co     1.70632769    1.75317019   -0.03569640      10
Co    -0.05937322   -1.84628158   -1.73806005      11
Co     0.00066676    1.71715732    1.84308104      12
Ni    -0.01437203   -1.83572040    1.79536077      13
Cr    -1.72804583   -1.78613125   -0.05901854      14
Ni     1.72813410   -1.80794681    0.02915968      15
Ni    -1.76812348   -0.06139312    1.79234396      16
Cr     1.69156631    0.04398171    1.79197432      17
Co     0.00000000    0.00000000    0.00000000      18
          18
Lattice="  24.8920   0.0000   0.0000   0.0000  24.8920   0.0000   0.0000   0.0000  24.8920 " ConfE="      -5949.0130" DelE="          0.6066"
Co    -0.02180123   -0.01959038   -3.45603485       1
Cr     0.05465780    3.35654385   -0.02997244       2
Co    -0.01116641   -0.04653491    3.57990975       3
Co     0.00164704   -3.59068521    0.01312435       4
Cr    -3.65482339   -0.09112908    0.02672110       5
Cr     3.52545190    0.00247772    0.02531628       6
Co    -1.92800142   -0.07647251   -1.74598636       7
Co     1.89271787   -0.07196356   -1.80599837       8
Co    -1.92804526    1.73615957    0.02723365       9
Co     1.92072407    1.75371848    0.03893627      10
Co    -0.06313139   -1.74147020   -1.68542963      11
Co     0.00039386    1.66626898    1.68294953      12
Ni    -0.01874600   -1.78951148    1.75550846      13
Cr    -1.72143710   -1.74905610   -0.07038980      14
Ni     1.71556113   -1.74830359    0.02098023      15
Ni    -1.77615404   -0.05760530    1.73459393      16
Cr     1.68822853    0.06485327    1.74533768      17
Co     0.00519177    0.89424269   -0.92591342      18
          18
Lattice="  24.8920   0.0000   0.0000   0.0000  24.8920   0.0000   0.0000   0.0000  24.8920 " ConfE="      -5949.9057" DelE="         -0.2861"
Co    -0.03509451   -0.06246466   -3.54325103       1
Cr     0.06144047    3.44610590    0.02213505       2
Co    -0.01425196   -0.06503860    3.61429065       3
Co     0.00223595   -3.61453430    0.02355799       4
Cr    -3.58637865   -0.08077048    0.00878597       5
Cr     3.49173661    0.02573835    0.03678765       6
Co    -1.76212190   -0.04045828   -1.70103119       7
Co     1.71259137   -0.05281091   -1.72824959       8
Co    -1.75128892    1.69340193    0.02046254       9
Co     1.72215994    1.68531936    0.02379236      10
Co    -0.07213272   -1.81523496   -1.70479777      11
Co     0.00800690    1.68221597    1.79620040      12
Ni    -0.01950058   -1.80919775    1.77160177      13
Cr    -1.71856255   -1.76708680   -0.06718478      14
Ni     1.70157420   -1.76952938    0.03922861      15
Ni    -1.75367897   -0.06979646    1.75695866      16
Cr     1.67815662    0.05135504    1.77252121      17
Co    -0.00855167    1.69194756   -1.72746118      18
