          18
Lattice="  24.8920   0.0000   0.0000   0.0000  24.8920   0.0000   0.0000   0.0000  24.8920 " ConfE="      -5943.2271" DelE="          0.0000"
Co    -0.01411179   -3.49596490    0.03349873       1
Co    -0.01972114   -0.05829230    3.43414967       2
Cr    -0.00513551    3.53659602   -0.06163530       3
Co     0.00708257    0.00988470   -3.60383529       4
Co    -3.53257003    0.00653949   -0.00416616       5
Ni     3.49654503    0.01509270   -0.02239068       6
Cr    -1.77327398   -1.78836464   -0.05465073       7
Ni     1.73948710   -1.75503691    0.00834195       8
Cr    -1.57791249   -0.20768285    1.70032744       9
Cr     1.64637247   -0.04763389    1.78478810      10
Ni     0.00975728   -1.75907751   -1.81303030      11
Ni     0.00020418    1.80973593    1.75237655      12
Cr     0.06462230    1.73240675   -1.79476962      13
Co    -1.76235525    0.03332754   -1.77105906      14
Co     1.75014541    0.03539949   -1.82814821      15
Cr    -1.75656162    1.77335375   -0.05283331      16
Co     1.70875311    1.78681710   -0.06386775      17
Co     0.00000000    0.00000000    0.00000000      18
          18
Lattice="  24.8920   0.0000   0.0000   0.0000  24.8920   0.0000   0.0000   0.0000  24.8920 " ConfE="      -5942.5332" DelE="          0.6939"
Co    -0.00948946   -3.43011278    0.05692671       1
Co    -0.02876844   -0.06879575    3.38982832       2
Cr    -0.02799121    3.53515553   -0.05977913       3
Co     0.00817258    0.00222481   -3.60033495       4
Co    -3.61891785    0.02616962   -0.01550297       5
Ni     3.56459009    0.02713308   -0.03721745       6
Cr    -1.93572681   -1.75977114   -0.07856466       7
Ni     1.88760063   -1.76908751   -0.05384835       8
Cr    -1.90942251   -0.01730008    1.80342786       9
Cr     1.83151685    0.02068286    1.79730966      10
Ni     0.00478128   -1.70691941   -1.73685515      11
Ni     0.00839244    1.73660538    1.71559637      12
Cr     0.07437998    1.64935933   -1.72892792      13
Co    -1.75559948    0.03906643   -1.73463748      14
Co     1.75544338    0.03463485   -1.81451377      15
Cr    -1.72143762    1.63796020   -0.02950094      16
Co     1.69542611    1.72612356   -0.06883283      17
Co    -0.06340925   -0.74880206    0.77924830      18
          18
Lattice="  24.8920   0.0000   0.0000   0.0000  24.8920   0.0000   0.0000   0.0000  24.8920 " ConfE="      -5943.5179" DelE="         -0.2909"
Co     0.00372440   -3.56168789   -0.01916902       1
Co    -0.02546021   -0.00897452    3.48883629       2
Cr    -0.01760729    3.58760903   -0.07447703       3
Co     0.00485543    0.00383354   -3.60589792       4
Co    -3.57080324    0.01732227   -0.01931656       5
Ni     3.52714515    0.02176512   -0.03731134       6
Cr    -1.77312866   -1.77914096   -0.04793944       7
Ni     1.74903731   -1.71944006   -0.03110573       8
Cr    -1.61052878   -0.08678910    1.61714921       9
Cr     1.66398699   -0.00106891    1.73932650      10
Ni     0.00365834   -1.73352664   -1.75597911      11
Ni     0.00709591    1.77509879    1.70882911      12
Cr     0.08278229    1.70473118   -1.76217317      13
Co    -1.70855043    0.04781682   -1.68505080      14
Co     1.72531289    0.04620449   -1.81258539      15
Cr    -1.71837515    1.74791080   -0.06535437      16
Co     1.67332285    1.73998898   -0.08665476      17
Co     0.00969101   -1.76574385    1.71386278      18
