          18
Lattice="  24.8920   0.0000   0.0000   0.0000  24.8920   0.0000   0.0000   0.0000  24.8920 " ConfE="      -5940.9595" DelE="          0.0000"
Co     0.02556944    3.59476371   -0.08121686       1
Ni    -3.50305551   -0.00644194   -0.00220832       2
Co    -0.03937062    0.00536827    3.53437481       3
Ni     0.01895138   -0.00203909   -3.54544746       4
Co     0.00316979   -3.56942832   -0.00158245       5
Co     3.53537205   -0.00403769    0.00385695       6
Ni    -1.72981030    1.78018151   -0.02437358       7
Ni    -1.76900218   -0.01005057   -1.78416728       8
Cr    -1.57385500    0.11440832    1.73718967       9
Co     1.72694964    1.79509456   -0.06242247      10
Cr     1.60527165    0.12621368    1.71036114      11
Ni     0.00100017   -1.78436695   -1.77712533      12
Cr     0.03714736    1.77866938   -1.82668410      13
Cr     1.79973205   -0.02369655   -1.73540118      14
Co     0.00591577   -1.80392888    1.76455979      15
Cr    -1.76926253   -1.84087348   -0.00351740      16
Co     1.77882362   -1.78525026   -0.00708425      17
Co     0.00000000    0.00000000    0.00000000      18
          18
Lattice="  24.8920   0.0000   0.0000   0.0000  24.8920   0.0000   0.0000   0.0000  24.8920 " ConfE="      -5940.3064" DelE="          0.6531"
Co     0.01692048    3.50870044   -0.03574487       1
Ni    -3.58915040   -0.02296074   -0.02715550       2
Co    -0.01682226    0.03251278    3.44008287       3
Ni     0.01658680    0.00139781   -3.53095042       4
Co     0.00167560   -3.57263850    0.00408184       5
Co     3.61757729   -0.00003848   -0.01714349       6
Ni    -1.89512690    1.79871887   -0.05732899       7
Ni    -1.77259601   -0.01486413   -1.73398339       8
Cr    -1.83091589   -0.00906284    1.75539232       9
Co     1.90635846    1.87761284   -0.06564641      10
Cr     1.89468060    0.01185552    1.71125533      11
Ni    -0.01211073   -1.74455489   -1.72286631      12
Cr     0.02103523    1.72225264   -1.72048911      13
Cr     1.71918347    0.02396238   -1.57451059      14
Co     0.02312244   -1.72725457    1.70898519      15
Cr    -1.73925780   -1.78520149    0.04600119      16
Co     1.77431769   -1.76329627   -0.01576188      17
Co     0.03053852    0.73470614    0.75992901      18
          18
Lattice="  24.8920   0.0000   0.0000   0.0000  24.8920   0.0000   0.0000   0.0000  24.8920 " ConfE="      -5941.1846" DelE="         -0.2251"
Co     0.03358499    3.62102893   -0.04045632       1
Ni    -3.53874004   -0.02313431   -0.01586698       2
Co    -0.03443486   -0.03306949    3.54678854       3
Ni     0.02470618    0.00180450   -3.52448708       4
Co     0.00494453   -3.60342502   -0.00633214       5
Co     3.57220791   -0.00817636   -0.00965467       6
Ni    -1.74043593    1.75905658   -0.02233295       7
Ni    -1.73603289   -0.01777070   -1.72526524       8
Cr    -1.54526713   -0.06563205    1.58650775       9
Co     1.73687789    1.78697576   -0.04487026      10
Cr     1.62330724   -0.03221327    1.60610836      11
Ni    -0.00246042   -1.75974577   -1.72429937      12
Cr     0.04864265    1.75420597   -1.72935526      13
Cr     1.73349500   -0.00677653   -1.62637931      14
Co     0.01530902   -1.79650574    1.72801486      15
Cr    -1.77701700   -1.86340038   -0.02019979      16
Co     1.76753603   -1.78332703   -0.02338708      17
Co     0.00180153    1.75361320    1.73084387      18
