          18
Lattice="  24.8920   0.0000   0.0000   0.0000  24.8920   0.0000   0.0000   0.0000  24.8920 " ConfE="      -5938.1123" DelE="          0.0000"
Co     3.53126406   -0.04554068    0.01721612       1
Ni    -3.55666572    0.02179629   -0.01706484       2
Ni     0.00163647   -0.00476887   -3.52505347       3
Cr     0.05931978   -3.45600556   -0.03905128       4
Cr    -0.00134893    0.03129394    3.55496497       5
Co     0.00460087    3.54629301   -0.01736303       6
Ni    -1.79096177   -1.73111630    0.04301218       7
Co     1.80833791   -0.03463337   -1.74576579       8
Co     0.03963743   -1.78889605   -1.70770437       9
Co     1.78363284    0.00616675    1.76443772      10
Cr     0.21500357   -1.73030142    1.65647822      11
Ni    -0.00160375    1.80243214    1.75389755      12
Co    -1.79987820    0.03333080   -1.78192308      13
Co    -1.78919038    1.80650692   -0.02433251      14
Co     1.79486704    1.79372723   -0.02335422      15
Cr     0.04672647    1.72836585   -1.74384683      16
Cr    -1.79972540    0.06890199    1.81338397      17
Ni     0.00000000    0.00000000    0.00000000      18
          18
Lattice="  24.8920   0.0000   0.0000   0.0000  24.8920   0.0000   0.0000   0.0000  24.8920 " ConfE="      -5937.6531" DelE="          0.4592"
Co     3.51169055   -0.04230670    0.01364395       1
Ni    -3.54278461    0.01276646   -0.02258015       2
Ni     0.00299702    0.01667500   -3.60531020       3
Cr     0.06494236   -3.44391739   -0.01933672       4
Cr    -0.02110885    0.10999788    3.64195848       5
Co     0.01573514    3.55379196   -0.01423833       6
Ni    -1.67409291   -1.69470855    0.03564194       7
Co     1.86573125    0.01856498   -1.93494990       8
Co    -0.01721542   -1.82337256   -1.97628069       9
Co     1.84563439    0.08440097    1.91425431      10
Cr     0.03542589   -1.66490221    1.99042068      11
Ni     0.00994030    1.78214197    1.75400084      12
Co    -1.72348173    0.01921879   -1.75151972      13
Co    -1.73034111    1.75699301   -0.00779831      14
Co     1.75572543    1.72177108   -0.03953931      15
Cr    -0.00355639    1.54670716   -1.59953484      16
Cr    -1.75196206    0.06053315    1.79047758      17
Ni     0.83350193   -0.87471035   -0.01092451      18
          18
Lattice="  24.8920   0.0000   0.0000   0.0000  24.8920   0.0000   0.0000   0.0000  24.8920 " ConfE="      -5938.3150" DelE="         -0.2027"
Co     3.58271634    0.00374530    0.01576596       1
Ni    -3.57200775    0.02312266   -0.02661567       2
Ni    -0.00137934    0.00173468   -3.55812478       3
Cr     0.01241674   -3.50957222    0.00535280       4
Cr    -0.00990850    0.06416828    3.60442668       5
Co     0.00065686    3.56182319   -0.01483376       6
Ni    -1.73169936   -1.68850818    0.03915903       7
Co     1.75925309    0.01065540   -1.75083835       8
Co     0.01646064   -1.75947192   -1.72269208       9
Co     1.75091044    0.03600956    1.76115640      10
Cr     0.06523769   -1.60009497    1.72154761      11
Ni    -0.01036416    1.76751647    1.71898379      12
Co    -1.74230171    0.04292661   -1.74212267      13
Co    -1.76685008    1.78067105   -0.02012606      14
Co     1.75766580    1.75154622   -0.03589485      15
Cr    -0.01145235    1.60394958   -1.63064651      16
Cr    -1.77760481    0.07080292    1.78787906      17
Ni     1.78799349   -1.73069712    0.00859800      18
