          18
Lattice="  24.8920   0.0000   0.0000   0.0000  24.8920   0.0000   0.0000   0.0000  24.8920 " ConfE="      -5946.6986" DelE="          0.0000"
Cr    -3.62615133    0.04444916    0.00018874       1
Ni    -0.05841819   -0.00957669   -3.50465205       2
Ni     3.51200099   -0.01061841    0.03657834       3
Ni    -0.03494561   -0.03977547    3.61268167       4
Ni    -0.05654020   -3.53762379    0.03179414       5
Ni    -0.07494651    3.53809501    0.04523540       6
Ni    -1.84303190   -1.70036417   -0.01377564       7
Co    -1.83186792    1.69438975    0.05834580       8
Co    -0.03307143   -1.70586541   -1.69520716       9
Ni    -0.08657034    1.75412993   -1.73221336      10
Cr    -1.83375764   -0.01158654    1.80008460      11
Cr     1.74964165   -0.00155187   -1.74741164      12
Cr     1.83684954    0.02104661    1.87523665      13
Cr    -0.00234307   -1.72422463    1.72703651      14
Ni    -0.04230069    1.73492249    1.84082673      15
Co     1.73790919   -1.76358794    0.05744469      16
Co     1.72793797    1.76652678    0.05271133      17
Cr     0.00000000    0.00000000    0.00000000      18
          18
Lattice="  24.8920   0.0000   0.0000   0.0000  24.8920   0.0000   0.0000   0.0000  24.8920 " ConfE="      -5945.8649" DelE="          0.8337"
Cr    -3.60268938    0.03339285    0.01017489       1
Ni    -0.06481641   -0.00129649   -3.44070173       2
Ni     3.52646418   -0.01544821    0.04722496       3
Ni    -0.05189432   -0.04108086    3.61601481       4
Ni    -0.05481757   -3.58471190    0.03928445       5
Ni    -0.07106953    3.58054443    0.05551922       6
Ni    -1.87793470   -1.87646480    0.05201353       7
Co    -1.82559190    1.80242013    0.07275000       8
Co    -0.03460867   -1.87107579   -1.74465146       9
Ni    -0.03328782    1.89803355   -1.76635313      10
Cr    -1.81033313   -0.02750097    1.75354948      11
Cr     1.69166220    0.00717828   -1.66332487      12
Cr     1.74021259    0.00275232    1.79745667      13
Cr    -0.02797939   -1.66732760    1.65563017      14
Ni    -0.05916574    1.69992823    1.79907953      15
Co     1.64895659   -1.69005715    0.02675687      16
Co     1.67700697    1.71521120    0.03844107      17
Cr    -0.90227898   -0.03279934   -0.88120182      18
          18
Lattice="  24.8920   0.0000   0.0000   0.0000  24.8920   0.0000   0.0000   0.0000  24.8920 " ConfE="      -5946.5410" DelE="          0.1576"
Cr    -3.66059094    0.02588655    0.05348024       1
Ni    -0.03798759    0.00318618   -3.52408989       2
Ni     3.52993424   -0.01750358    0.06122415       3
Ni    -0.04336171   -0.03686770    3.62396056       4
Ni    -0.05205040   -3.56829854    0.03737113       5
Ni    -0.05956841    3.57369856    0.06248608       6
Ni    -1.81596653   -1.74682935    0.02555102       7
Co    -1.80780170    1.72974890    0.08735931       8
Co    -0.02829821   -1.69703982   -1.68470724       9
Ni    -0.03532948    1.77514284   -1.69814785      10
Cr    -1.76298589   -0.01757906    1.71447932      11
Cr     1.65067001   -0.02814458   -1.62042202      12
Cr     1.71378536    0.00592239    1.78698670      13
Cr     0.00399868   -1.71595740    1.72167633      14
Ni    -0.04013250    1.72938401    1.83147377      15
Co     1.69095607   -1.72832997    0.07068566      16
Co     1.72053454    1.74185985    0.06613824      17
Cr    -1.77085646    0.08346298   -1.60958577      18
