          18
Lattice="  24.8920   0.0000   0.0000   0.0000  24.8920   0.0000   0.0000   0.0000  24.8920 " ConfE="      -5924.8512" DelE="          0.0000"
Cr     0.03701597   -0.09907934    3.55804750       1
Co     3.52664809   -0.00211928    0.05080824       2
Ni     0.02796058    3.49716480    0.00808130       3
Co    -3.55343074   -0.00160079   -0.01395379       4
Co    -0.02707119    0.01068795   -3.54909324       5
Co     0.03136078   -3.51577924    0.02141242       6
Cr     0.06538961    1.66765082    1.80553979       7
Cr     1.79323969    1.66072735   -0.02957497       8
Cr     0.07803912   -1.71312430    1.74574264       9
Cr     1.78316114   -1.67238334    0.00933745      10
Ni    -1.75769405    1.77969905    0.01607331      11
Ni    -1.76745821   -1.76742855   -0.00005159      12
Co    -0.01206378    1.76222883   -1.79882137      13
Co    -1.77532578   -0.00912912    1.79968575      14
Co     1.80480808   -0.00458911   -1.77182487      15
Co    -1.77825870    0.00586832   -1.79890920      16
Co    -0.00083105   -1.77632333   -1.77655325      17
Ni     0.00000000    0.00000000    0.00000000      18
          18
Lattice="  24.8920   0.0000   0.0000   0.0000  24.8920   0.0000   0.0000   0.0000  24.8920 " ConfE="      -5924.3489" DelE="          0.5023"
Cr     0.03731113   -0.05912668    3.49396825       1
Co     3.50693307   -0.01524425    0.04522176       2
Ni     0.02973651    3.56017483   -0.01305992       3
Co    -3.54039338   -0.00078638   -0.00219895       4
Co    -0.01562157    0.01429508   -3.54775642       5
Co     0.01840584   -3.57418960    0.02356334       6
Cr    -0.07306604    1.94389370    1.86283289       7
Cr     1.87690096    1.86346720   -0.12373105       8
Cr     0.01846021   -1.91586079    1.78972517       9
Cr     1.77840207   -1.87167664   -0.03657416      10
Ni    -1.71785216    1.77309484    0.01702089      11
Ni    -1.73090973   -1.76311876    0.01627965      12
Co     0.02717546    1.74161401   -1.73856706      13
Co    -1.70427427   -0.00198306    1.77528809      14
Co     1.77416706   -0.01023179   -1.71802414      15
Co    -1.71403697    0.00489621   -1.74843327      16
Co     0.02509781   -1.75193107   -1.71614476      17
Ni     0.68477619    0.06059941    0.72145256      18
          18
Lattice="  24.8920   0.0000   0.0000   0.0000  24.8920   0.0000   0.0000   0.0000  24.8920 " ConfE="      -5925.1208" DelE="         -0.2696"
Cr     0.03456849   -0.12982713    3.62622897       1
Co     3.59686883   -0.00434999    0.01136429       2
Ni     0.01042802    3.51214850    0.00328557       3
Co    -3.56983518   -0.00184761   -0.00996620       4
Co    -0.03360717    0.01223729   -3.56486541       5
Co     0.01622636   -3.54155804    0.00865411       6
Cr    -0.02393115    1.66881635    1.75287664       7
Cr     1.66560156    1.58973744   -0.09434788       8
Cr    -0.00676390   -1.69173956    1.68398192       9
Cr     1.66650817   -1.62666371   -0.07309526      10
Ni    -1.73914722    1.74019827    0.00762457      11
Ni    -1.74147727   -1.72797924   -0.00727960      12
Co    -0.00904580    1.70840005   -1.73963612      13
Co    -1.70942363    0.00331750    1.78242090      14
Co     1.77833987   -0.01113584   -1.73230857      15
Co    -1.76874090    0.00259069   -1.78940120      16
Co    -0.00475511   -1.73600798   -1.74008809      17
Ni     1.79716736    0.00702962    1.77389293      18
