          18
Lattice="  24.8920   0.0000   0.0000   0.0000  24.8920   0.0000   0.0000   0.0000  24.8920 " ConfE="      -5946.7487" DelE="          0.0000"
Cr    -3.50729915    0.09343524   -0.02076714       1
Co    -0.12103996   -3.52129977   -0.04898153       2
Ni     3.59336432   -0.04840434   -0.06347975       3
Ni     0.04969663    3.54756175   -0.03518189       4
Co     0.05579952   -0.00720880   -3.62069068       5
Cr     0.04078926    0.01517657    3.50008336       6
Ni    -1.74018065    0.01564807   -1.78194270       7
Ni    -1.71973691   -0.01883627    1.72572774       8
Ni    -0.00184787   -1.76380147   -1.77137219       9
Cr     0.00887331   -1.82663212    1.69130912      10
Cr    -1.74821034    1.80282878   -0.01297196      11
Ni     1.81014204   -1.80778178   -0.05515906      12
Cr     1.79883034    1.73782472   -0.09893320      13
Co     0.05072651    1.78525423   -1.81363060      14
Cr     0.05759215    1.77423286    1.75905305      15
Co     1.79562643   -0.00948217   -1.83097868      16
Ni     1.80565225   -0.02545939    1.72375656      17
Co     0.00000000    0.00000000    0.00000000      18
          18
Lattice="  24.8920   0.0000   0.0000   0.0000  24.8920   0.0000   0.0000   0.0000  24.8920 " ConfE="      -5946.0083" DelE="          0.7405"
Cr    -3.34629934    0.07863039   -0.01193722       1
Co    -0.12974476   -3.45027657   -0.07134282       2
Ni     3.56575180   -0.05645678   -0.07611560       3
Ni     0.05650696    3.57414495   -0.04037666       4
Co     0.07569220    0.00346598   -3.68913597       5
Cr     0.06116487    0.01714613    3.57635012       6
Ni    -1.70340412    0.03614806   -1.92479197       7
Ni    -1.73151094    0.04575394    1.91821461       8
Ni     0.05934580   -1.80554103   -1.94686310       9
Cr     0.04301389   -1.88248586    1.81530373      10
Cr    -1.59139072    1.69574154   -0.02455928      11
Ni     1.76471279   -1.79552406   -0.07956980      12
Cr     1.65789066    1.64404339   -0.12785043      13
Co     0.06196297    1.78218929   -1.84052558      14
Cr     0.06257143    1.76196992    1.75517099      15
Co     1.77905534   -0.01471172   -1.84835989      16
Ni     1.72997230   -0.05200475    1.69319418      17
Co    -0.59223700   -0.72289116    0.04787062      18
          18
Lattice="  24.8920   0.0000   0.0000   0.0000  24.8920   0.0000   0.0000   0.0000  24.8920 " ConfE="      -5946.8965" DelE="         -0.1477"
Cr    -3.52811869    0.09920835   -0.00977883       1
Co    -0.05194649   -3.61193100   -0.06415826       2
Ni     3.58882829   -0.04853537   -0.06829252       3
Ni     0.04742407    3.57415673   -0.03976403       4
Co     0.06539472   -0.00601395   -3.63993742       5
Cr     0.05213305    0.02721810    3.54820498       6
Ni    -1.71066854    0.02609343   -1.78754290       7
Ni    -1.66512743   -0.00236784    1.72133557       8
Ni     0.02982973   -1.75038440   -1.77819795       9
Cr     0.03169103   -1.84702565    1.69892528      10
Cr    -1.66994659    1.73103598   -0.01909013      11
Ni     1.77079117   -1.79115679   -0.05725897      12
Cr     1.71673282    1.69382297   -0.11776995      13
Co     0.05868609    1.76260799   -1.78827831      14
Cr     0.06379830    1.76924594    1.73272260      15
Co     1.79157398   -0.00469317   -1.82280221      16
Ni     1.75126819   -0.02745306    1.69264681      17
Co    -1.73657404   -1.77079804   -0.02611472      18
