          18
Lattice="  24.8920   0.0000   0.0000   0.0000  24.8920   0.0000   0.0000   0.0000  24.8920 " ConfE="      -5949.8161" DelE="          0.0000"
Ni    -0.03156222   -3.46268778   -0.00626224       1
Cr     3.43842234    0.09643103    0.05230150       2
Co    -0.03961873    0.07441934   -3.54258956       3
Cr    -0.04887132    0.06915878    3.53636426       4
Cr    -3.60186568    0.01144618   -0.04340967       5
Cr     0.00444535    3.58567963   -0.03386903       6
Ni     1.73100419    0.03822363   -1.74243448       7
Ni    -0.05408092   -1.74359006    1.77122902       8
Co     1.76740676   -0.00322784    1.75082784       9
Cr     0.00944167   -1.72121277   -1.82177990      10
Ni    -1.81493532    0.02971411    1.77550956      11
Ni    -1.78849824    1.79313934   -0.00792917      12
Co     1.74586320    1.85228679    0.02486503      13
Co    -1.86743072   -1.72271950   -0.03226632      14
Co    -0.03546344    1.82870761   -1.77394606      15
Co    -0.02104954    1.81431698    1.79803667      16
Cr    -1.78745609    0.01216125   -1.78278151      17
Ni     0.00000000    0.00000000    0.00000000      18
          18
Lattice="  24.8920   0.0000   0.0000   0.0000  24.8920   0.0000   0.0000   0.0000  24.8920 " ConfE="      -5949.3851" DelE="          0.4310"
Ni    -0.01912132   -3.41355094   -0.00498779       1
Cr     3.35780240    0.06848968    0.04743665       2
Co    -0.03802956    0.08478848   -3.59912119       3
Cr    -0.08502791    0.08325786    3.60089319       4
Cr    -3.61749877   -0.00120746   -0.04031155       5
Cr     0.01231852    3.59766042   -0.03183815       6
Ni     1.77607685    0.09886514   -1.90551607       7
Ni    -0.11587866   -1.78082354    1.93350485       8
Co     1.72210052    0.06203553    1.91575782       9
Cr     0.01332725   -1.78083551   -1.99522314      10
Ni    -1.79479918    0.02573168    1.77506542      11
Ni    -1.73528984    1.73648176   -0.00848838      12
Co     1.72041816    1.78327977    0.02583778      13
Co    -1.80800993   -1.68836952   -0.04801033      14
Co    -0.01761490    1.80745430   -1.77386447      15
Co    -0.02459507    1.80640120    1.80150952      16
Cr    -1.67384014   -0.02127430   -1.73255126      17
Ni     0.62809538   -0.72304730   -0.04698937      18
          18
Lattice="  24.8920   0.0000   0.0000   0.0000  24.8920   0.0000   0.0000   0.0000  24.8920 " ConfE="      -5950.0141" DelE="         -0.1980"
Ni    -0.05122634   -3.50385504   -0.00622544       1
Cr     3.47359759    0.14812016    0.03319683       2
Co    -0.03999601    0.08118826   -3.57278970       3
Cr    -0.07259786    0.07529387    3.56943597       4
Cr    -3.62308072    0.01288678   -0.03529700       5
Cr     0.00786077    3.59960956   -0.03795802       6
Ni     1.69927472    0.05727019   -1.73924730       7
Ni    -0.06835591   -1.71667974    1.76521922       8
Co     1.71511593    0.05362862    1.78652660       9
Cr    -0.03777067   -1.66892105   -1.80302681      10
Ni    -1.78734111    0.03802618    1.75087488      11
Ni    -1.75839959    1.76342711   -0.00477566      12
Co     1.72691064    1.80483514    0.03948252      13
Co    -1.80894302   -1.68226019   -0.05017971      14
Co    -0.03688946    1.79790768   -1.74907123      15
Co    -0.02259285    1.80906980    1.78623810      16
Cr    -1.75841512    0.02258414   -1.74986531      17
Ni     1.69207820   -1.69089238    0.00412454      18
