          18
Lattice="  24.8920   0.0000   0.0000   0.0000  24.8920   0.0000   0.0000   0.0000  24.8920 " ConfE="      -5948.8926" DelE="          0.0000"
Ni     0.00825885    0.01075141    3.53740223       1
Co    -0.03684389    0.09732202   -3.50323687       2
Cr    -3.50465910    0.05484651   -0.04566158       3
Cr     3.54558001    0.04065913   -0.03458916       4
Co     0.03241698    3.55901024    0.00897778       5
Cr     0.06390366   -3.53514775    0.05728672       6
Ni    -1.74806920    1.74963082   -0.01193859       7
Ni    -0.01608375   -1.73018252   -1.78471548       8
Ni    -1.76785552   -1.73986812   -0.00437521       9
Co    -0.00735537    1.80147129   -1.75015847      10
Ni     1.77978662   -1.75252931   -0.02677050      11
Co    -1.77340011    0.00550527    1.80280299      12
Co     1.82489019   -0.01244561    1.78012550      13
Cr     0.06947459    1.76402053    1.77186146      14
Co     1.83330368    0.07569028   -1.78879341      15
Co     0.05674858   -1.79117511    1.78928811      16
Cr     1.78762950    1.77399977    0.00491899      17
Ni     0.00000000    0.00000000    0.00000000      18
          18
Lattice="  24.8920   0.0000   0.0000   0.0000  24.8920   0.0000   0.0000   0.0000  24.8920 " ConfE="      -5948.2105" DelE="          0.6822"
Ni    -0.00452866    0.01745158    3.52458424       1
Co    -0.04118946    0.08853342   -3.46192270       2
Cr    -3.41323864    0.02316339   -0.08773157       3
Cr     3.57110469    0.03889513   -0.04592738       4
Co     0.06007346    3.62483031    0.02659766       5
Cr     0.09687237   -3.60553305    0.07447763       6
Ni    -1.80270609    1.96232524    0.04534739       7
Ni     0.04162566   -1.87321069   -1.80216450       8
Ni    -1.77120605   -1.92935373    0.05180036       9
Co     0.03036008    1.95782234   -1.77581604      10
Ni     1.74624164   -1.72966951   -0.03465040      11
Co    -1.73169255    0.00213360    1.70790291      12
Co     1.76161275    0.01997615    1.71036311      13
Cr     0.05833260    1.72434068    1.69841975      14
Co     1.77292865    0.08799375   -1.76072046      15
Co     0.06039874   -1.78080231    1.76127758      16
Cr     1.74343552    1.72760050   -0.03492528      17
Ni    -0.81982374    0.03098389   -0.75848802      18
          18
Lattice="  24.8920   0.0000   0.0000   0.0000  24.8920   0.0000   0.0000   0.0000  24.8920 " ConfE="      -5948.9126" DelE="         -0.0200"
Ni     0.00581856    0.01532694    3.56333802       1
Co     0.01330524    0.09442722   -3.55617742       2
Cr    -3.54557690    0.04568376    0.04394546       3
Cr     3.57259880    0.03825410   -0.03428463       4
Co     0.04550019    3.58796453    0.01721747       5
Cr     0.08497496   -3.56559751    0.06994627       6
Ni    -1.70616054    1.75014314    0.02851178       7
Ni     0.01959274   -1.72443339   -1.74774636       8
Ni    -1.71760035   -1.74181811    0.03243908       9
Co     0.03675809    1.79058784   -1.70391744      10
Ni     1.74910401   -1.70649758   -0.01449509      11
Co    -1.72823237    0.01034027    1.77184606      12
Co     1.77544985    0.01793109    1.74389351      13
Cr     0.08660107    1.71882004    1.73955117      14
Co     1.80229070    0.08040882   -1.76071642      15
Co     0.06912690   -1.77120178    1.79597117      16
Cr     1.76112736    1.72260250   -0.01645001      17
Ni    -1.74484954    0.01968683   -1.73684155      18
