          18
Lattice="  24.8920   0.0000   0.0000   0.0000  24.8920   0.0000   0.0000   0.0000  24.8920 " ConfE="      -5949.0404" DelE="          0.0000"
Co     0.02599115   -3.37400729   -0.01565241       1
Ni     0.03720287    0.06073203    3.48781041       2
Co    -0.04652332    3.62725793   -0.05655442       3
Ni     0.01810736    0.10977336   -3.62795395       4
Ni    -3.52193561    0.07999971   -0.05405069       5
Cr     3.57021111    0.05966343    0.02642467       6
Co    -1.81237898   -1.72965213   -0.10980389       7
Co     1.85204427   -1.68617357   -0.08581538       8
Ni    -1.74578002    0.06289597    1.72429041       9
Ni     1.76363861    0.02358988    1.73809864      10
Co     0.01366355   -1.70167565   -1.84085669      11
Ni    -0.01601630    1.87631522    1.74215957      12
Ni     0.01344876    1.81780991   -1.79886787      13
Ni    -1.77246419    0.08169237   -1.83319930      14
Cr     1.77065742   -0.04472876   -1.75069688      15
Cr    -1.79110668    1.87585820   -0.02762209      16
Ni     1.76658711    1.83721524   -0.03249790      17
Ni     0.00000000    0.00000000    0.00000000      18
          18
Lattice="  24.8920   0.0000   0.0000   0.0000  24.8920   0.0000   0.0000   0.0000  24.8920 " ConfE="      -5948.4433" DelE="          0.5971"
Co     0.02385849   -3.38850285   -0.03640092       1
Ni     0.03790337    0.05747847    3.45244158       2
Co    -0.05009586    3.64364232   -0.04745841       3
Ni     0.01356429    0.11245191   -3.62099827       4
Ni    -3.57205461    0.10200874   -0.05208475       5
Cr     3.62221274    0.07240795   -0.00539413       6
Co    -1.94357199   -1.75340658   -0.16690477       7
Co     1.98797271   -1.70081936   -0.12193748       8
Ni    -1.86943172    0.15634016    1.75631221       9
Ni     1.90115167    0.10849058    1.76819517      10
Co     0.03102419   -1.63052671   -1.75078634      11
Ni    -0.01406891    1.83597508    1.71781434      12
Ni     0.00164668    1.80350995   -1.76273124      13
Ni    -1.76459134    0.08554842   -1.79049368      14
Cr     1.70864271   -0.04230842   -1.68424143      15
Cr    -1.78637409    1.86211695   -0.00832817      16
Ni     1.75398877    1.80415332   -0.03399706      17
Ni     0.00229937   -1.00124482    0.97889372      18
          18
Lattice="  24.8920   0.0000   0.0000   0.0000  24.8920   0.0000   0.0000   0.0000  24.8920 " ConfE="      -5948.9382" DelE="          0.1023"
Co     0.02577252   -3.43270233   -0.04490731       1
Ni     0.02436674    0.10759545    3.51726277       2
Co    -0.04161523    3.65065700   -0.06016754       3
Ni     0.01655323    0.11531921   -3.63649021       4
Ni    -3.53361724    0.08371429   -0.05453146       5
Cr     3.60788827    0.07170922    0.01744063       6
Co    -1.78917911   -1.71175976   -0.10988889       7
Co     1.83555583   -1.65345986   -0.07742151       8
Ni    -1.73728972    0.10206799    1.68418252       9
Ni     1.77275287    0.08402472    1.71506367      10
Co     0.03432921   -1.63069715   -1.76585827      11
Ni    -0.02173567    1.86531988    1.71534976      12
Ni     0.00823080    1.79992681   -1.77489878      13
Ni    -1.75714002    0.08836824   -1.80437095      14
Cr     1.72139888   -0.04507192   -1.70842655      15
Cr    -1.79500556    1.89581435   -0.03588691      16
Ni     1.75143727    1.81251918   -0.04558743      17
Ni     0.01441865   -1.62775413    1.69196955      18
