          18
Lattice="  24.8920   0.0000   0.0000   0.0000  24.8920   0.0000   0.0000   0.0000  24.8920 " ConfE="      -5950.1217" DelE="          0.0000"
Ni     3.52005247   -0.04492924   -0.00153273       1
Ni    -0.02254751   -0.03325717   -3.52161309       2
Ni     0.00938088   -0.00018216    3.57595085       3
Ni    -0.02263446   -3.51992822    0.02227530       4
Cr     0.01095963    3.52825137    0.01834687       5
Cr    -3.49186763   -0.04478564    0.01097841       6
Ni     1.73233778    1.73687973   -0.00067523       7
Ni     1.77513223   -1.75772909   -0.00074993       8
Ni    -0.00135255   -1.74531527   -1.76701292       9
Cr    -0.05625387    1.75788372   -1.74828341      10
Ni     1.77480862   -0.01724422    1.80930597      11
Ni    -0.00788076   -1.77238192    1.79478944      12
Co    -1.81765827    0.01396790   -1.76808412      13
Co    -1.76884690    1.80262515   -0.01630603      14
Co    -0.05836724    1.79511402    1.76554579      15
Co    -1.80606214    0.02509348    1.80129264      16
Co    -1.81078824   -1.76440652    0.01952816      17
Ni     0.00000000    0.00000000    0.00000000      18
          18
Lattice="  24.8920   0.0000   0.0000   0.0000  24.8920   0.0000   0.0000   0.0000  24.8920 " ConfE="      -5949.4144" DelE="          0.7073"
Ni     3.47670434   -0.03850523   -0.01768014       1
Ni    -0.01834255   -0.03946430   -3.49120005       2
Ni     0.00954440   -0.00213651    3.57058898       3
Ni    -0.03481374   -3.57158703    0.03761253       4
Cr    -0.00635776    3.59385258    0.04717468       5
Cr    -3.49213481   -0.05027797   -0.00142349       6
Ni     1.74391757    1.89017172    0.06681667       7
Ni     1.79827236   -1.89024702    0.06022313       8
Ni    -0.08363465   -1.91691443   -1.81113523       9
Cr    -0.10370413    1.89376021   -1.76293785      10
Ni     1.72274954   -0.00676021    1.73236468      11
Ni    -0.01755268   -1.75155907    1.75062079      12
Co    -1.76534874    0.00056491   -1.73843374      13
Co    -1.71616614    1.77604272   -0.03672730      14
Co    -0.06492365    1.78070040    1.73319235      15
Co    -1.78519756    0.02307089    1.75873238      16
Co    -1.78255658   -1.74477138    0.00506830      17
Ni     0.98536644   -0.00588672   -1.03791507      18
          18
Lattice="  24.8920   0.0000   0.0000   0.0000  24.8920   0.0000   0.0000   0.0000  24.8920 " ConfE="      -5950.0515" DelE="          0.0702"
Ni     3.54708394   -0.04087236    0.03110284       1
Ni    -0.03368261   -0.03505742   -3.55277069       2
Ni     0.00790378   -0.00581492    3.59234316       3
Ni    -0.02908416   -3.53789334    0.02803478       4
Cr     0.00511729    3.56802850    0.02267926       5
Cr    -3.49475952   -0.05630701    0.00776241       6
Ni     1.68265445    1.72521474    0.02864195       7
Ni     1.75045364   -1.76849114    0.03896518       8
Ni    -0.03946431   -1.75751187   -1.73889510       9
Cr    -0.07839714    1.74248604   -1.71936609      10
Ni     1.74310746   -0.01668262    1.78819740      11
Ni    -0.02246645   -1.74663250    1.76640978      12
Co    -1.76319047    0.02052044   -1.74087300      13
Co    -1.72221956    1.76679898   -0.02124486      14
Co    -0.06926429    1.76680457    1.75257978      15
Co    -1.78920035    0.02190109    1.77515030      16
Co    -1.80225180   -1.73550301    0.02119401      17
Ni     1.72123789   -0.04166958   -1.71656532      18
