          18
Lattice="  24.8920   0.0000   0.0000   0.0000  24.8920   0.0000   0.0000   0.0000  24.8920 " ConfE="      -5945.6893" DelE="          0.0000"
Co     0.02669327    3.62405313   -0.00354280       1
Co     0.03260875   -0.00031261    3.53865026       2
Ni     0.05666841   -3.55644336   -0.01201388       3
Co     0.08625006    0.00863235   -3.58706778       4
Cr    -3.45213614    0.04033932   -0.06900140       5
Co     3.61117705    0.02812432   -0.00655920       6
Ni    -1.68803421    1.80717365   -0.01002747       7
Ni     1.77035996    1.80443968    0.00754568       8
Cr    -1.67526378    0.04237308    1.69598612       9
Ni     1.77715175    0.03175704    1.74934719      10
Co     0.04252222    1.75077372   -1.83377839      11
Co     0.02396970   -1.78497795    1.74896253      12
Ni     0.07931407   -1.77294280   -1.79885558      13
Cr    -1.66637629    0.03360780   -1.82490844      14
Cr     1.80881814    0.04773718   -1.73423190      15
Cr    -1.71634884   -1.71839405   -0.06635877      16
Cr     1.83026822   -1.70748201    0.01455991      17
Co     0.00000000    0.00000000    0.00000000      18
          18
Lattice="  24.8920   0.0000   0.0000   0.0000  24.8920   0.0000   0.0000   0.0000  24.8920 " ConfE="      -5944.6063" DelE="          1.0829"
Co     0.02051571    3.55341801    0.01773510       1
Co     0.05857183   -0.00587278    3.52776739       2
Ni     0.05025675   -3.55851014   -0.00257828       3
Co     0.08418138    0.01463218   -3.58877139       4
Cr    -3.57585124   -0.01374606   -0.10320989       5
Co     3.68342073    0.02429632   -0.01288516       6
Ni    -1.88415163    1.82325627   -0.08720954       7
Ni     1.92333428    1.81612823   -0.01450965       8
Cr    -1.81945890   -0.02312542    1.70990596       9
Ni     1.94060608   -0.01102006    1.77508638      10
Co     0.04572492    1.69158949   -1.70884547      11
Co     0.03423232   -1.66844089    1.67073026      12
Ni     0.06994297   -1.74476853   -1.77558068      13
Cr    -1.61848576    0.06597916   -1.77578911      14
Cr     1.71445488    0.06216086   -1.63444979      15
Cr    -1.62798510   -1.61286939   -0.04434252      16
Cr     1.76666320   -1.63481718    0.02141770      17
Co    -0.03312335    1.07125056    1.11613607      18
          18
Lattice="  24.8920   0.0000   0.0000   0.0000  24.8920   0.0000   0.0000   0.0000  24.8920 " ConfE="      -5945.1765" DelE="          0.5128"
Co     0.02437291    3.61982089   -0.00248496       1
Co     0.03822066   -0.02807364    3.57688015       2
Ni     0.05119249   -3.57357074   -0.01412232       3
Co     0.08734345    0.00686806   -3.60524115       4
Cr    -3.50507415    0.02483438   -0.09606856       5
Co     3.63305977    0.02887913   -0.01347751       6
Ni    -1.69453153    1.77526178   -0.03997310       7
Ni     1.78436806    1.78707031    0.00012145       8
Cr    -1.63815792    0.04104239    1.63968837       9
Ni     1.79044465    0.00267269    1.71976206      10
Co     0.05396998    1.70566296   -1.78744838      11
Co     0.01071431   -1.71728638    1.68442673      12
Ni     0.07572926   -1.75199557   -1.77885971      13
Cr    -1.61311632    0.04745855   -1.78899053      14
Cr     1.74862704    0.04933811   -1.69261366      15
Cr    -1.64943242   -1.65360368   -0.05868381      16
Cr     1.79094895   -1.68322809   -0.00753570      17
Co     0.00108080    1.72984361    1.77244100      18
