          18
Lattice="  24.8920   0.0000   0.0000   0.0000  24.8920   0.0000   0.0000   0.0000  24.8920 " ConfE="      -5948.1780" DelE="          0.0000"
Cr    -0.02125243   -3.55741988    0.00359874       1
Ni     3.51481868    0.01782451   -0.00290591       2
Co     0.01845188    0.03482310   -3.49769723       3
Ni     0.01274026    3.56737475    0.04286950       4
Ni     0.01476263    0.06288773    3.60632898       5
Cr    -3.54864123    0.02829775    0.00622990       6
Ni    -1.72155202   -1.74964702    0.00185976       7
Ni     1.71225955   -1.75947462   -0.00752208       8
Co    -1.79557121    0.04397132   -1.70832828       9
Cr     1.69002158   -0.02470529   -1.83526169      10
Ni    -0.00686500    1.81985798   -1.73706778      11
Ni     0.02114901    1.79622008    1.82291421      12
Cr    -1.77007923    0.08485782    1.78259220      13
Co    -1.78118945    1.80579439    0.03907893      14
Cr     0.01597530   -1.72258594    1.84648438      15
Co     1.79624353    0.02282065    1.83011212      16
Cr     1.76626009    1.76273618    0.04930542      17
Ni     0.00000000    0.00000000    0.00000000      18
          18
Lattice="  24.8920   0.0000   0.0000   0.0000  24.8920   0.0000   0.0000   0.0000  24.8920 " ConfE="      -5947.4834" DelE="          0.6945"
Cr    -0.01845198   -3.46849935   -0.02517536       1
Ni     3.62462888    0.03632780    0.02742556       2
Co    -0.00500348    0.04682470   -3.51201533       3
Ni     0.01596532    3.54517055    0.03651483       4
Ni     0.01103397    0.05341570    3.59012651       5
Cr    -3.66339024    0.05029966    0.04002853       6
Ni    -1.89158972   -1.72538669    0.05365676       7
Ni     1.86220610   -1.74904318    0.04470221       8
Co    -2.01146935    0.14644967   -1.69387624       9
Cr     1.89871751    0.09440095   -1.80234905      10
Ni    -0.02171961    1.68104186   -1.67081149      11
Ni     0.01604832    1.77554853    1.80624481      12
Cr    -1.75315567    0.09686017    1.71534418      13
Co    -1.77855113    1.76253361    0.06863497      14
Cr    -0.01337685   -1.64798163    1.70223738      15
Co     1.76427482    0.03130212    1.75537387      16
Cr     1.73636352    1.67566568    0.05645703      17
Ni    -0.02004585   -1.01313741   -1.12763255      18
          18
Lattice="  24.8920   0.0000   0.0000   0.0000  24.8920   0.0000   0.0000   0.0000  24.8920 " ConfE="      -5948.0118" DelE="          0.1662"
Cr    -0.01842202   -3.58340536    0.02322061       1
Ni     3.55749233    0.02266071    0.01484063       2
Co     0.01955027    0.06590702   -3.55465258       3
Ni     0.01405285    3.56821234    0.04643149       4
Ni     0.01170323    0.07302035    3.62812712       5
Cr    -3.59770315    0.04014902    0.02761181       6
Ni    -1.71640655   -1.69050934    0.05776041       7
Ni     1.71638489   -1.72022718    0.02466120       8
Co    -1.79005235    0.06871808   -1.67356718       9
Cr     1.73643263    0.04617032   -1.75563939      10
Ni    -0.00403947    1.75451350   -1.69466973      11
Ni     0.02222769    1.78737126    1.81619741      12
Cr    -1.73770010    0.11414916    1.76400997      13
Co    -1.76171732    1.76427179    0.06719989      14
Cr     0.00890862   -1.66089987    1.81235866      15
Co     1.75432787    0.03500562    1.78471721      16
Cr     1.74013584    1.71739483    0.06563928      17
Ni    -0.02017666   -1.69685549   -1.72593200      18
