          18
Lattice="  24.8920   0.0000   0.0000   0.0000  24.8920   0.0000   0.0000   0.0000  24.8920 " ConfE="      -5923.1643" DelE="          0.0000"
Ni    -3.54240521   -0.01845588    0.01971529       1
Ni    -0.05976354   -0.04517029   -3.55502365       2
Ni     0.01490166   -3.56615453    0.01417490       3
Cr    -0.07394689    3.40810637    0.04704512       4
Co    -0.04239240   -0.03525622    3.57934327       5
Cr     3.66203349   -0.10826828    0.00720338       6
Ni    -1.78691369   -0.00308660    1.77734443       7
Ni    -1.81746541   -0.05692364   -1.74981833       8
Co    -0.01409626    1.74053900    1.74642938       9
Cr    -0.14952092    1.70417361   -1.66044265      10
Cr     1.71394262   -0.07101519    1.94372597      11
Cr     1.84995725    1.54358482    0.08631507      12
Cr    -1.74203811   -1.82260223    0.04184709      13
Co    -0.00882238   -1.79237217    1.79753044      14
Cr     1.74366574   -0.01892595   -1.86018484      15
Cr     1.77906405   -1.68766194    0.08464376      16
Co     0.05491760   -1.80990733   -1.75567141      17
Co     0.00000000    0.00000000    0.00000000      18
          18
Lattice="  24.8920   0.0000   0.0000   0.0000  24.8920   0.0000   0.0000   0.0000  24.8920 " ConfE="      -5922.1917" DelE="          0.9726"
Ni    -3.47786483   -0.02391938    0.02564833       1
Ni    -0.04726391   -0.07290891   -3.62509887       2
Ni     0.00848764   -3.57223374    0.01767206       3
Cr    -0.03062195    3.41691097    0.03680991       4
Co    -0.02397306   -0.06361481    3.67586134       5
Cr     3.62153328   -0.08789978    0.01571540       6
Ni    -1.79066363   -0.04571438    1.93899501       7
Ni    -1.84002476   -0.09541481   -1.87863176       8
Co     0.08639399    1.71258014    1.95203189       9
Cr    -0.03343509    1.70620015   -1.88693078      10
Cr     1.68170799   -0.03686799    1.96201399      11
Cr     1.67280616    1.48458534    0.09145692      12
Cr    -1.60660217   -1.68272987    0.04997668      13
Co    -0.00917263   -1.75568532    1.79419033      14
Cr     1.69167502   -0.03262492   -1.82296087      15
Cr     1.63209889   -1.58385030    0.10985547      16
Co     0.04614910   -1.76145197   -1.73972483      17
Co    -0.98978561    1.08449228   -0.00453924      18
          18
Lattice="  24.8920   0.0000   0.0000   0.0000  24.8920   0.0000   0.0000   0.0000  24.8920 " ConfE="      -5922.7567" DelE="          0.4077"
Ni    -3.56942836   -0.06477890    0.01534187       1
Ni    -0.05163719   -0.05171632   -3.58566074       2
Ni     0.01838950   -3.58921073    0.01142286       3
Cr    -0.01510668    3.48685930    0.03699443       4
Co    -0.04130131   -0.04507313    3.60669772       5
Cr     3.64624401   -0.10230266    0.01053838       6
Ni    -1.76934655   -0.03441599    1.79446992       7
Ni    -1.79506890   -0.07784655   -1.75946612       8
Co     0.02182819    1.69542751    1.75153692       9
Cr    -0.07467620    1.66835144   -1.67468183      10
Cr     1.71352456   -0.06914585    1.96266531      11
Cr     1.69978987    1.47018451    0.08973780      12
Cr    -1.65358608   -1.76171163    0.04683770      13
Co     0.00369265   -1.76592459    1.76351674      14
Cr     1.72453981   -0.03249200   -1.84655105      15
Cr     1.67308394   -1.61022682    0.10041296      16
Co     0.06470067   -1.77347695   -1.72290107      17
Co    -1.74560038    1.68570459   -0.00401386      18
