          18
Lattice="  24.8920   0.0000   0.0000   0.0000  24.8920   0.0000   0.0000   0.0000  24.8920 " ConfE="      -5935.7724" DelE="          0.0000"
Co     3.43346103   -0.01268815   -0.04789479       1
Co    -0.09201768   -0.02043727    3.55012240       2
Co    -0.07409785   -0.04693558   -3.59269800       3
Co    -3.66999437   -0.02026171   -0.02487230       4
Co    -0.03095873    3.51497371   -0.02386418       5
Co    -0.12068658   -3.61826092   -0.02738657       6
Ni    -0.06440965   -1.76068217    1.75620849       7
Ni     1.69126010   -1.79398126   -0.02883489       8
Cr     1.69178487    1.66155986    0.05818445       9
Co    -0.02499006    1.69070444    1.75422787      10
Ni    -1.84841790   -0.01891389   -1.77765744      11
Ni    -0.08650736    1.72448229   -1.79258335      12
Ni    -1.83812865   -1.78429057   -0.01999606      13
Cr     1.70532405   -0.03857650   -1.86899291      14
Co    -1.88619676    0.00274482    1.70653045      15
Cr    -1.77670678    1.70894923    0.07387124      16
Co    -0.07818584   -1.79893275   -1.80211622      17
Co     0.00000000    0.00000000    0.00000000      18
          18
Lattice="  24.8920   0.0000   0.0000   0.0000  24.8920   0.0000   0.0000   0.0000  24.8920 " ConfE="      -5935.1790" DelE="          0.5935"
Co     3.40796366   -0.00729933   -0.04599614       1
Co    -0.07046330   -0.00960643    3.48209918       2
Co    -0.05127369   -0.05199001   -3.58135344       3
Co    -3.65588378   -0.01876311   -0.01811631       4
Co    -0.05994620    3.57901063   -0.03777568       5
Co    -0.13093642   -3.67724618   -0.04556876       6
Ni    -0.08692041   -1.84721241    1.74041166       7
Ni     1.70663571   -1.95323397   -0.06501973       8
Cr     1.74422718    1.97999318    0.00513334       9
Co    -0.12904455    1.88939225    1.78765429      10
Ni    -1.80587406   -0.01865710   -1.73338931      11
Ni    -0.06546955    1.69410102   -1.72569393      12
Ni    -1.80219069   -1.78523729   -0.02126814      13
Cr     1.69028519   -0.05271908   -1.73288877      14
Co    -1.79038633    0.01802512    1.65468365      15
Cr    -1.73730718    1.69780428    0.09595827      16
Co    -0.05447163   -1.78766243   -1.78121413      17
Co     0.97558794    0.10992519    0.86070703      18
          18
Lattice="  24.8920   0.0000   0.0000   0.0000  24.8920   0.0000   0.0000   0.0000  24.8920 " ConfE="      -5935.6298" DelE="          0.1426"
Co     3.48489864   -0.02340234   -0.06007846       1
Co    -0.10358666   -0.01442231    3.55936387       2
Co    -0.06865449   -0.05289477   -3.60085148       3
Co    -3.68995301   -0.02368450   -0.02344696       4
Co    -0.04089507    3.53908860   -0.03400908       5
Co    -0.12681517   -3.63460900   -0.03251441       6
Ni    -0.09478995   -1.76518318    1.73664293       7
Ni     1.65533182   -1.78328705   -0.04288290       8
Cr     1.63576666    1.65021019    0.01596081       9
Co    -0.09793010    1.70452933    1.70656139      10
Ni    -1.84120000   -0.02089430   -1.75286530      11
Ni    -0.09692512    1.68547464   -1.75381928      12
Ni    -1.82429126   -1.77518873   -0.02411059      13
Cr     1.68834970   -0.04280749   -1.78772607      14
Co    -1.86088408    0.00576367    1.67450801      15
Cr    -1.76279966    1.68215898    0.07765082      16
Co    -0.07896028   -1.77995740   -1.79533549      17
Co     1.63294174    0.02131736    1.65688776      18
