          18
Lattice="  24.8920   0.0000   0.0000   0.0000  24.8920   0.0000   0.0000   0.0000  24.8920 " ConfE="      -5945.0254" DelE="          0.0000"
Co    -3.43429723   -0.05905995    0.06617482       1
Cr     0.10484801    0.01972423    3.51736313       2
Co     3.63625511   -0.04971787   -0.04958275       3
Co     0.09962853    0.00786633   -3.54405020       4
Cr     0.05917706    3.44283081    0.08694986       5
Ni     0.05563978   -3.56456907   -0.00090723       6
Co    -1.73108143    1.70148758    0.05415483       7
Cr    -1.72517494   -1.69863671   -0.03155768       8
Co     0.05010251    1.74951374    1.75758226       9
Ni    -0.00821942   -1.72328722    1.74846318      10
Co    -1.71015850   -0.02992409   -1.80776580      11
Ni     1.85040928   -0.01006000    1.73996628      12
Cr     1.83381230   -0.06066797   -1.76501606      13
Co     0.09958546    1.76705849   -1.76580585      14
Co     0.03807846   -1.79833633   -1.79086326      15
Co     1.84285593    1.72545271   -0.03516044      16
Ni     1.80179536   -1.78919906   -0.01883704      17
Co     0.00000000    0.00000000    0.00000000      18
          18
Lattice="  24.8920   0.0000   0.0000   0.0000  24.8920   0.0000   0.0000   0.0000  24.8920 " ConfE="      -5944.4151" DelE="          0.6103"
Co    -3.37464459   -0.03789769    0.06424611       1
Cr     0.08025040   -0.00276270    3.46714473       2
Co     3.62613400   -0.04755389   -0.04425299       3
Co     0.09023608    0.00995217   -3.54897406       4
Cr     0.06227370    3.51756949    0.06931128       5
Ni     0.07212445   -3.61612634   -0.01151647       6
Co    -1.74994004    1.90106401   -0.01699738       7
Cr    -1.72565320   -1.88309812   -0.07359641       8
Co     0.07855776    1.85224596    1.76331018       9
Ni     0.08821326   -1.91796656    1.80634457      10
Co    -1.68170670   -0.01616442   -1.77179053      11
Ni     1.77829117   -0.01804016    1.70592008      12
Cr     1.76043587   -0.04319308   -1.71107398      13
Co     0.08339020    1.74484086   -1.72238874      14
Co     0.02580305   -1.77620822   -1.74198261      15
Co     1.81523088    1.72372307   -0.03437699      16
Ni     1.77778273   -1.78672815   -0.01950636      17
Co    -0.70020804   -0.04699665    0.62076294      18
          18
Lattice="  24.8920   0.0000   0.0000   0.0000  24.8920   0.0000   0.0000   0.0000  24.8920 " ConfE="      -5945.2525" DelE="         -0.2271"
Co    -3.50220031   -0.03479974    0.01181722       1
Cr     0.11427436    0.01393987    3.55585774       2
Co     3.64168179   -0.04417109   -0.04964529       3
Co     0.09554770    0.00505822   -3.56316976       4
Cr     0.07073196    3.48669159    0.08031003       5
Ni     0.06133686   -3.58282840   -0.01331142       6
Co    -1.67991688    1.71444827    0.00214826       7
Cr    -1.70289159   -1.69127539   -0.09612925       8
Co     0.06443479    1.76842866    1.72817177       9
Ni     0.02730371   -1.73289284    1.70504696      10
Co    -1.66952521   -0.03827454   -1.73950992      11
Ni     1.79592516    0.00001996    1.71079563      12
Cr     1.82882560   -0.03759934   -1.76609362      13
Co     0.12029961    1.73186419   -1.74506236      14
Co     0.03416525   -1.77882516   -1.77755786      15
Co     1.81960791    1.70948353   -0.04357818      16
Ni     1.77308337   -1.75127234   -0.04330461      17
Co    -1.69822774    0.00004480    1.72944922      18
