          18
Lattice="  24.8920   0.0000   0.0000   0.0000  24.8920   0.0000   0.0000   0.0000  24.8920 " ConfE="      -5927.1014" DelE="          0.0000"
Ni     0.00097969    3.50947571    0.06055563       1
Ni     0.02462585   -0.04953348    3.64688872       2
Ni     3.58828055   -0.05912301    0.10401047       3
Ni     0.00805288   -3.63914117    0.10958983       4
Cr    -0.03049659   -0.01829535   -3.30588454       5
Cr    -3.63524693   -0.03248433    0.10491167       6
Cr    -1.72446839    1.75005100    0.00260503       7
Co    -1.78842495   -0.03817559   -1.64335595       8
Ni    -1.75512489   -0.07350743    1.85102209       9
Co     1.72592470    1.71724758   -0.00431364      10
Ni     0.02109056   -1.90556362   -1.65486798      11
Cr     1.74157269   -0.01778086   -1.65120753      12
Ni     1.78260727   -0.02932730    1.82970346      13
Ni     1.79552241   -1.83045697    0.07682142      14
Cr    -1.82633383   -1.86595622    0.08170460      15
Co    -0.01124655    1.70887167    1.84517106      16
Cr     0.02020517   -1.82134916    1.86024353      17
Cr     0.00000000    0.00000000    0.00000000      18
          18
Lattice="  24.8920   0.0000   0.0000   0.0000  24.8920   0.0000   0.0000   0.0000  24.8920 " ConfE="      -5926.5359" DelE="          0.5655"
Ni    -0.00930852    3.43748957    0.03201668       1
Ni     0.02047202   -0.04102046    3.65029743       2
Ni     3.64328377   -0.06193337    0.13262998       3
Ni     0.01291003   -3.63015639    0.10177548       4
Cr    -0.04060001   -0.09897857   -3.40644300       5
Cr    -3.73257755   -0.04695441    0.12810010       6
Cr    -1.86122562    1.76042103    0.00701237       7
Co    -1.92780804   -0.12850001   -1.64102649       8
Ni    -1.75889178   -0.04947543    1.81483882       9
Co     1.87085479    1.75276402    0.06760615      10
Ni     0.02666718   -1.83730422   -1.63703593      11
Cr     1.95021324   -0.16731049   -1.67724014      12
Ni     1.78218375   -0.02049736    1.81040645      13
Ni     1.78456437   -1.79046474    0.08329204      14
Cr    -1.75717554   -1.77395672    0.07407210      15
Co    -0.01148893    1.67047549    1.77321884      16
Cr     0.01398657   -1.72869753    1.78416680      17
Cr     0.05695006    0.66316350   -0.69563226      18
          18
Lattice="  24.8920   0.0000   0.0000   0.0000  24.8920   0.0000   0.0000   0.0000  24.8920 " ConfE="      -5926.9218" DelE="          0.1796"
Ni    -0.00275373    3.55116946    0.10303066       1
Ni     0.02393076   -0.05659934    3.66667725       2
Ni     3.61064007   -0.06962641    0.11512752       3
Ni     0.01072817   -3.64089864    0.10400247       4
Cr    -0.03465661   -0.06395860   -3.44114365       5
Cr    -3.62998042   -0.03055359    0.11384930       6
Cr    -1.73967828    1.71694633    0.15407948       7
Co    -1.76525525   -0.03009496   -1.61125773       8
Ni    -1.73770297   -0.10359631    1.86477530       9
Co     1.74299415    1.69267529    0.05292922      10
Ni     0.01167617   -1.82610165   -1.62274745      11
Cr     1.73880195   -0.05343547   -1.64053242      12
Ni     1.77677357   -0.04837753    1.83883876      13
Ni     1.77313701   -1.80584470    0.08681621      14
Cr    -1.79832075   -1.83469712    0.10044589      15
Co    -0.01720685    1.67866057    1.80252744      16
Cr     0.01850172   -1.81073665    1.84561847      17
Cr     0.00161049    1.61534025   -1.52449266      18
