          18
Lattice="  24.8920   0.0000   0.0000   0.0000  24.8920   0.0000   0.0000   0.0000  24.8920 " ConfE="      -5943.0200" DelE="          0.0000"
Co     0.03032197   -3.46976684    0.00912145       1
Co     3.56102717    0.02550035    0.03017616       2
Ni    -0.02247303    3.58037750   -0.01731413       3
Co    -3.61575805    0.03816189    0.00105561       4
Co    -0.04155439    0.02275553    3.58224230       5
Ni    -0.04110876    0.01337467   -3.52634824       6
Cr    -0.05809609   -1.74478335    1.74970155       7
Co    -0.05490017   -1.80427841   -1.73485211       8
Ni     1.72371578    0.00000603    1.76767337       9
Ni     1.74411273   -0.03522770   -1.72534073      10
Cr    -1.84175256   -1.76018142    0.05882070      11
Ni     1.74886953    1.85270420   -0.04399382      12
Ni    -1.80296592    1.78973269   -0.00409510      13
Co    -1.83775744    0.00899284    1.76721900      14
Ni    -1.79518833    0.01234394   -1.76108885      15
Ni    -0.03645234    1.79198422    1.77940490      16
Co    -0.02760757    1.83069249   -1.80131612      17
Ni     0.00000000    0.00000000    0.00000000      18
          18
Lattice="  24.8920   0.0000   0.0000   0.0000  24.8920   0.0000   0.0000   0.0000  24.8920 " ConfE="      -5942.5060" DelE="          0.5140"
Co     0.01113491   -3.46459244   -0.01436084       1
Co     3.53204070    0.01232020    0.02592713       2
Ni    -0.00962998    3.55890343   -0.01472787       3
Co    -3.61728765    0.02790232    0.00565870       4
Co    -0.05308455    0.02785230    3.63265216       5
Ni    -0.05142926    0.02507963   -3.58386426       6
Cr    -0.10676859   -1.76608714    1.91728079       7
Co    -0.14474613   -1.86452786   -1.91609427       8
Ni     1.75512534    0.04818822    1.91980308       9
Ni     1.76305598    0.01492704   -1.86920452      10
Cr    -1.77514779   -1.72291354    0.06532059      11
Ni     1.70750740    1.74215360   -0.02612900      12
Ni    -1.75844437    1.74324423   -0.00098012      13
Co    -1.77836832   -0.02851846    1.73910249      14
Ni    -1.76249598    0.00129573   -1.75600204      15
Ni    -0.03480829    1.76720628    1.79036660      16
Co    -0.01775899    1.79843233   -1.80087499      17
Ni     0.69027243   -0.81357151    0.01918522      18
          18
Lattice="  24.8920   0.0000   0.0000   0.0000  24.8920   0.0000   0.0000   0.0000  24.8920 " ConfE="      -5943.2474" DelE="         -0.2274"
Co    -0.03523611   -3.55028620   -0.02137812       1
Co     3.57357480    0.04119040    0.02634792       2
Ni    -0.02780601    3.59223545   -0.01683732       3
Co    -3.63172983    0.03756460    0.00493064       4
Co    -0.04632873    0.03238211    3.60842580       5
Ni    -0.05008964    0.02249844   -3.54862312       6
Cr    -0.11563607   -1.68774385    1.73516565       7
Co    -0.09839391   -1.77433438   -1.72876634       8
Ni     1.69434095    0.03749041    1.77433103       9
Ni     1.69404953    0.02335569   -1.73187966      10
Cr    -1.78984120   -1.73340301    0.04604174      11
Ni     1.72230325    1.83051891   -0.04082191      12
Ni    -1.78292898    1.76929017   -0.00737168      13
Co    -1.79184692   -0.01653363    1.72545878      14
Ni    -1.76989118    0.01848684   -1.73709640      15
Ni    -0.04835708    1.77201602    1.75856056      16
Co    -0.03564746    1.82737173   -1.79222241      17
Ni     1.66592711   -1.69782946    0.01690494      18
