          18
Lattice="  24.8920   0.0000   0.0000   0.0000  24.8920   0.0000   0.0000   0.0000  24.8920 " ConfE="      -5950.2377" DelE="          0.0000"
Ni    -0.01181762    3.46351938   -0.00063230       1
Co    -0.03074405    0.01241937   -3.49323751       2
Cr    -3.59336676   -0.01726358    0.05402890       3
Cr     3.48993343   -0.00710596   -0.00522588       4
Cr    -0.03536296   -0.08905981    3.56771890       5
Cr    -0.01257094   -3.52447435    0.01531901       6
Ni    -1.79639029    0.02647012   -1.74795836       7
Ni    -1.78194334    1.74240240   -0.00033929       8
Co     1.73331040    0.00669985   -1.77898997       9
Ni    -0.00038950    1.72867647    1.82512312      10
Co     1.80733756    1.69683991    0.02970390      11
Cr    -0.02181124   -1.75137776   -1.74616330      12
Co    -1.78926582   -1.77327466    0.03848502      13
Co    -1.77286183   -0.04195507    1.81417680      14
Co     1.77097554   -1.77816480    0.03609648      15
Cr     1.77280596   -0.04847589    1.79065680      16
Co    -0.01726836   -1.79451410    1.79042638      17
Ni     0.00000000    0.00000000    0.00000000      18
          18
Lattice="  24.8920   0.0000   0.0000   0.0000  24.8920   0.0000   0.0000   0.0000  24.8920 " ConfE="      -5949.4295" DelE="          0.8082"
Ni    -0.04417201    3.46321760    0.02008568       1
Co    -0.04283228    0.00799143   -3.48193346       2
Cr    -3.67950959   -0.02208748    0.06765472       3
Cr     3.58280829   -0.04095263    0.01430401       4
Cr    -0.03512907   -0.08335390    3.56971239       5
Cr    -0.01104717   -3.52555639    0.01499552       6
Ni    -1.93552676   -0.01025507   -1.76138439       7
Ni    -1.92464774    1.74939744    0.05895500       8
Co     1.89084637   -0.07193611   -1.80310895       9
Ni    -0.00047441    1.65340578    1.73000172      10
Co     1.94472827    1.68083792    0.10383140      11
Cr    -0.02519754   -1.61174270   -1.64651245      12
Co    -1.74843804   -1.71566956    0.01629144      13
Co    -1.78086993   -0.04317717    1.77553741      14
Co     1.74173609   -1.70948962    0.02977470      15
Cr     1.76901771   -0.04838049    1.72728219      16
Co    -0.01363196   -1.73797038    1.74396080      17
Ni     0.02018170    1.15961744   -1.13471468      18
          18
Lattice="  24.8920   0.0000   0.0000   0.0000  24.8920   0.0000   0.0000   0.0000  24.8920 " ConfE="      -5949.8737" DelE="          0.3640"
Ni    -0.02520604    3.50312960    0.03734102       1
Co    -0.03683309   -0.01802923   -3.54774641       2
Cr    -3.63690395   -0.01777359    0.05563455       3
Cr     3.54292046   -0.02225999    0.00648712       4
Cr    -0.03414776   -0.09048659    3.58890040       5
Cr    -0.01280937   -3.53757082    0.01612804       6
Ni    -1.81184804   -0.00758244   -1.73344019       7
Ni    -1.79372547    1.70999398    0.03273404       8
Co     1.73570790   -0.03682558   -1.75081707       9
Ni     0.00743810    1.65757387    1.77305956      10
Co     1.79869200    1.65092338    0.05182311      11
Cr    -0.01980223   -1.69183359   -1.68053403      12
Co    -1.74900225   -1.74128244    0.02755733      13
Co    -1.77224535   -0.05687909    1.79564321      14
Co     1.73308736   -1.73028692    0.03661337      15
Cr     1.76719509   -0.06796712    1.76140455      16
Co    -0.01370271   -1.74801595    1.75633779      17
Ni    -0.02167192    1.69552233   -1.69638511      18
