          18
Lattice="  24.8920   0.0000   0.0000   0.0000  24.8920   0.0000   0.0000   0.0000  24.8920 " ConfE="      -5944.8010" DelE="          0.0000"
Co     0.01830530   -0.01175332    3.50427035       1
Co     3.47903764    0.03987552    0.01748471       2
Co    -0.05817361    0.00762579   -3.60371439       3
Cr    -3.59329472   -0.04320850   -0.04790084       4
Ni    -0.03237803    3.53320996   -0.02507606       5
Cr    -0.04856587   -3.53436351   -0.03169190       6
Cr     0.02086681    1.73511545    1.77195235       7
Ni     0.03336804   -1.73694084    1.76132508       8
Cr     1.74515396    1.68497568    0.05733665       9
Ni     1.78574398   -1.76117599   -0.00244806      10
Ni    -1.81786347   -0.00523193    1.74381290      11
Ni     1.72346666    0.00168285   -1.82263120      12
Co    -1.80257187   -0.00089714   -1.81953735      13
Co    -1.78347379    1.76062138   -0.05564369      14
Ni    -1.79776120   -1.75554054   -0.02680367      15
Cr    -0.04314748    1.76560385   -1.80625046      16
Co    -0.03657662   -1.77601074   -1.82824037      17
Ni     0.00000000    0.00000000    0.00000000      18
          18
Lattice="  24.8920   0.0000   0.0000   0.0000  24.8920   0.0000   0.0000   0.0000  24.8920 " ConfE="      -5944.1878" DelE="          0.6133"
Co     0.02379156   -0.03020138    3.47381023       1
Co     3.48156031    0.03734121    0.01357532       2
Co    -0.04363764    0.00970590   -3.59228978       3
Cr    -3.60646047   -0.05291303   -0.03009895       4
Ni    -0.05356119    3.59326180   -0.02419413       5
Cr    -0.06105741   -3.61733908   -0.04255562       6
Cr    -0.05907540    1.90230214    1.81923539       7
Ni    -0.03495391   -1.88558616    1.75870339       8
Cr     1.79670916    1.93092647   -0.08469954       9
Ni     1.81419808   -1.91322111   -0.04482168      10
Ni    -1.73877550    0.00178242    1.69700998      11
Ni     1.69978172    0.00331562   -1.72849998      12
Co    -1.75620798    0.00816485   -1.76661245      13
Co    -1.74153914    1.75080624   -0.04542935      14
Ni    -1.77703894   -1.75329240   -0.02514198      15
Cr    -0.05752239    1.66818900   -1.63224371      16
Co    -0.02141972   -1.76472538   -1.77357803      17
Ni     0.87233105    0.05527511    0.81778819      18
          18
Lattice="  24.8920   0.0000   0.0000   0.0000  24.8920   0.0000   0.0000   0.0000  24.8920 " ConfE="      -5945.0018" DelE="         -0.2007"
Co    -0.01833617   -0.01930877    3.54840921       1
Co     3.55491176    0.01060868   -0.03897504       2
Co    -0.05137870    0.00871394   -3.61856525       3
Cr    -3.61791182   -0.05105345   -0.04784375       4
Ni    -0.04126707    3.57044247   -0.03149990       5
Cr    -0.05799816   -3.56885762   -0.04029560       6
Cr    -0.02234676    1.72002634    1.68138454       7
Ni    -0.01267834   -1.74578814    1.71814581       8
Cr     1.67408531    1.69227016   -0.01755961       9
Ni     1.76641561   -1.77105458   -0.03222148      10
Ni    -1.78260880   -0.00654925    1.71775416      11
Ni     1.69339700    0.00218174   -1.77516423      12
Co    -1.77749974    0.00058385   -1.81040958      13
Co    -1.72841422    1.71511972   -0.05917484      14
Ni    -1.77269392   -1.72166265   -0.04140652      15
Cr    -0.07120922    1.69728929   -1.70389417      16
Co    -0.03653099   -1.75964757   -1.80588641      17
Ni     1.73982256   -0.00079909    1.73132406      18
