          18
Lattice="  24.8920   0.0000   0.0000   0.0000  24.8920   0.0000   0.0000   0.0000  24.8920 " ConfE="      -5942.9135" DelE="          0.0000"
Ni    -3.48348798   -0.05089368    0.02662898       1
Cr    -0.02783797    3.44492971    0.04995189       2
Ni     3.60411734   -0.04104245   -0.00802276       3
Co     0.03858919   -3.64308393   -0.05370904       4
Ni     0.03615448   -0.07172763   -3.54347210       5
Cr    -0.03629656    0.00629742    3.43901112       6
Cr    -1.69477507   -0.02309076   -1.68728972       7
Co    -1.70627907    0.01300598    1.73630757       8
Cr    -0.00925926    1.70454805   -1.68153766       9
Co     0.00125690    1.76064356    1.72287564      10
Ni    -1.74996071   -1.89355432   -0.00896111      11
Co     1.84155582    1.75463336    0.02906980      12
Co     1.80248397   -1.84828744   -0.00227293      13
Co     0.01604005   -1.84382829   -1.76498853      14
Ni     0.00001147   -1.85909232    1.73383053      15
Ni     1.79780653   -0.04532394   -1.75184156      16
Cr     1.77829027   -0.06887493    1.71593640      17
Co     0.00000000    0.00000000    0.00000000      18
          18
Lattice="  24.8920   0.0000   0.0000   0.0000  24.8920   0.0000   0.0000   0.0000  24.8920 " ConfE="      -5942.3187" DelE="          0.5948"
Ni    -3.45722370   -0.08263091    0.01129692       1
Cr    -0.06047170    3.39599849    0.03636851       2
Ni     3.59381679   -0.03537612   -0.01415409       3
Co     0.03002177   -3.65033330   -0.05273139       4
Ni     0.04829706   -0.09709963   -3.60562677       5
Cr    -0.03283536   -0.02360928    3.50956161       6
Cr    -1.73648614   -0.17783178   -1.88942613       7
Co    -1.72596288   -0.04400764    1.85641003       8
Cr     0.04169594    1.76268974   -1.91514854       9
Co     0.03565905    1.74972861    1.87991557      10
Ni    -1.72596507   -1.86507971   -0.01935360      11
Co     1.73066174    1.70200927    0.01648652      12
Co     1.76445166   -1.81651332    0.00198738      13
Co     0.00337197   -1.84058565   -1.77345808      14
Ni    -0.01226446   -1.83432609    1.72447958      15
Ni     1.73393818   -0.04671228   -1.73837525      16
Cr     1.69547185   -0.06081640    1.65565066      17
Co    -0.78472111    0.79347783   -0.10093624      18
          18
Lattice="  24.8920   0.0000   0.0000   0.0000  24.8920   0.0000   0.0000   0.0000  24.8920 " ConfE="      -5943.0285" DelE="         -0.1150"
Ni    -3.52439200   -0.08291813    0.01470476       1
Cr     0.00589352    3.51279024    0.03602691       2
Ni     3.61683945   -0.04202573   -0.00884348       3
Co     0.03974390   -3.65490467   -0.05531554       4
Ni     0.05021866   -0.07818650   -3.57052488       5
Cr    -0.03175118   -0.01734510    3.47428642       6
Cr    -1.61922265   -0.10256224   -1.68159400       7
Co    -1.67163821   -0.03305249    1.72615446       8
Cr     0.04111817    1.67341860   -1.69346013       9
Co     0.03589570    1.70868306    1.73138993      10
Ni    -1.73766312   -1.86769236   -0.00835887      11
Co     1.79030391    1.72278576    0.02689390      12
Co     1.80624240   -1.84198442    0.01045726      13
Co     0.01801580   -1.82830705   -1.74693931      14
Ni     0.00897817   -1.84247399    1.71108079      15
Ni     1.76604910   -0.05609884   -1.71384325      16
Cr     1.74208343   -0.07675416    1.67291254      17
Co    -1.70535281    1.67182695   -0.03194036      18
