          18
Lattice="  24.8920   0.0000   0.0000   0.0000  24.8920   0.0000   0.0000   0.0000  24.8920 " ConfE="      -5945.0018" DelE="          0.0000"
Ni    -0.04427970   -3.43678237    0.01776832       1
Ni    -0.04238621    0.06912633    3.53905629       2
Ni    -0.12083035    3.62817388    0.00067417       3
Cr     3.40249953   -0.02284957    0.04161523       4
Co    -0.05219057    0.06015392   -3.53435198       5
Co    -3.62923909    0.08490135    0.00537471       6
Ni    -0.05419458   -1.72166897    1.77692900       7
Co    -0.04908552   -1.71453587   -1.75123474       8
Ni    -1.83722333    0.05041846   -1.74411371       9
Cr     1.65720500   -0.01783043   -1.64471933      10
Ni    -1.85460379    0.03755114    1.76908959      11
Cr     1.70606745    0.00490662    1.74055938      12
Ni     1.68714715    1.85532275    0.02767494      13
Ni    -0.08704037    1.82970134    1.76733080      14
Cr    -1.88949760   -1.76617317    0.01133109      15
Cr    -0.04737084    1.79339011   -1.76815428      16
Cr    -1.85182165    1.81994664   -0.01547014      17
Co     0.00000000    0.00000000    0.00000000      18
          18
Lattice="  24.8920   0.0000   0.0000   0.0000  24.8920   0.0000   0.0000   0.0000  24.8920 " ConfE="      -5943.9971" DelE="          1.0047"
Ni    -0.02774498   -3.45337595    0.02538890       1
Ni    -0.08482540    0.07647812    3.56429853       2
Ni    -0.09401893    3.66280465    0.01026896       3
Cr     3.42935854   -0.00128293    0.04837957       4
Co    -0.12884516    0.04977800   -3.51245159       5
Co    -3.59716091    0.08987340   -0.01386631       6
Ni    -0.11694192   -1.73921981    1.85316494       7
Co    -0.07028304   -1.87552158   -1.87903494       8
Ni    -1.22225804    0.04002002   -1.05317631       9
Cr     1.61665754    0.09354444   -1.95708629      10
Ni    -1.83083706    0.04041961    1.71040159      11
Cr     1.70025893    0.07946410    1.93572266      12
Ni     1.62955059    1.75614155   -0.00349143      13
Ni    -0.10241602    1.80635013    1.73380908      14
Cr    -1.89681066   -1.89870506    0.04399643      15
Cr    -0.04166300    1.90242593   -1.80861114      16
Cr    -1.90189905    1.99632215    0.00702433      17
Co     1.01931812   -0.85684453   -0.01920708      18
          18
Lattice="  24.8920   0.0000   0.0000   0.0000  24.8920   0.0000   0.0000   0.0000  24.8920 " ConfE="      -5944.4045" DelE="          0.5972"
Ni    -0.07185939   -3.52930576    0.03588860       1
Ni    -0.05570912    0.07160028    3.53112955       2
Ni    -0.10823379    3.67488429    0.00629804       3
Cr     3.45755127    0.01651808    0.03794602       4
Co    -0.09368254    0.05817534   -3.46504993       5
Co    -3.55756358    0.08384125   -0.03696377       6
Ni    -0.10311642   -1.73168485    1.78607303       7
Co    -0.06432798   -1.88079844   -1.82060426       8
Ni    -0.91338917    0.04636938   -0.76347440       9
Cr     1.60105183    0.02174273   -1.63282623      10
Ni    -1.83179984    0.04181929    1.72084253      11
Cr     1.63550239    0.02427243    1.68426655      12
Ni     1.65325088    1.83247806    0.00951796      13
Ni    -0.10298965    1.83824005    1.74684004      14
Cr    -1.92390709   -1.91615758    0.02554566      15
Cr    -0.07404965    1.93638022   -1.83302783      16
Cr    -1.91683016    2.00216677   -0.01200392      17
Co     1.61218706   -1.65193737    0.00911032      18
