          18
Lattice="  24.8920   0.0000   0.0000   0.0000  24.8920   0.0000   0.0000   0.0000  24.8920 " ConfE="      -5943.3748" DelE="          0.0000"
Co     0.06657809   -3.53274231   -0.08766203       1
Ni     0.03581116   -0.00342279   -3.52571638       2
Ni     0.05059596    3.57867438    0.01231372       3
Ni     0.01299082    0.00340368    3.54768256       4
Ni    -3.49271294   -0.01794117   -0.00304174       5
Ni     3.55564054   -0.00668366    0.00658461       6
Ni    -1.69338556   -1.77587837   -0.02276552       7
Ni     1.78383550   -1.77703566   -0.00678282       8
Co    -1.71169137    0.00852082   -1.78550122       9
Co     1.82429891   -0.07082221   -1.79575243      10
Ni     0.04378141   -1.79050283    1.78188511      11
Ni     0.03045663    1.80130366   -1.77730529      12
Ni     0.02170302    1.77561410    1.78038116      13
Cr    -1.71685260    0.00555713    1.75908049      14
Ni     1.79042686   -0.00337454    1.80350907      15
Co    -1.77495498    1.78312063   -0.04445077      16
Ni     1.77852682    1.78055383    0.02688855      17
Co     0.00000000    0.00000000    0.00000000      18
          18
Lattice="  24.8920   0.0000   0.0000   0.0000  24.8920   0.0000   0.0000   0.0000  24.8920 " ConfE="      -5942.6597" DelE="          0.7151"
Co     0.06540613   -3.47488942   -0.10269197       1
Ni     0.04346457   -0.02353215   -3.48564571       2
Ni     0.05099482    3.56795515    0.00551054       3
Ni     0.01329645   -0.00283697    3.54526710       4
Ni    -3.53290872   -0.01737401    0.00438923       5
Ni     3.60262890   -0.00940676    0.00702404       6
Ni    -1.80653373   -1.79413878    0.02990584       7
Ni     1.90606976   -1.81632339    0.04509051       8
Co    -1.88432706    0.08269409   -1.86762611       9
Co     2.03468560   -0.06338575   -1.88208907      10
Ni     0.02740387   -1.74926718    1.71862189      11
Ni     0.02627111    1.75444622   -1.76867071      12
Ni     0.00186255    1.72041257    1.72945947      13
Cr    -1.74910522   -0.00107090    1.77328231      14
Ni     1.77656942   -0.02282458    1.76265055      15
Co    -1.76171493    1.72121291   -0.04905908      16
Ni     1.75171602    1.70975215   -0.00589741      17
Co     0.05457980   -0.68567506   -0.84920241      18
          18
Lattice="  24.8920   0.0000   0.0000   0.0000  24.8920   0.0000   0.0000   0.0000  24.8920 " ConfE="      -5943.7070" DelE="         -0.3322"
Co     0.05064677   -3.56184494   -0.01771784       1
Ni     0.04070431    0.01590421   -3.57059907       2
Ni     0.04562855    3.57485622    0.01016342       3
Ni     0.00802628    0.00921435    3.56520797       4
Ni    -3.51488359   -0.02055091    0.00552364       5
Ni     3.57388817   -0.00080416    0.00678188       6
Ni    -1.68478462   -1.72926947   -0.00014070       7
Ni     1.78137673   -1.75053689    0.01586886       8
Co    -1.69433243    0.01286814   -1.76744823       9
Co     1.85211220   -0.05664533   -1.80637280      10
Ni     0.02620468   -1.73224261    1.75234448      11
Ni     0.03333031    1.75832084   -1.76924775      12
Ni    -0.01460369    1.72685364    1.74258946      13
Cr    -1.76924266    0.00222131    1.81305797      14
Ni     1.77359969    0.00168214    1.79376270      15
Co    -1.77102063    1.74033263   -0.04640593      16
Ni     1.74699414    1.74712117    0.02167803      17
Co     0.07187129   -1.80146104   -1.80896951      18
