          18
Lattice="  24.8920   0.0000   0.0000   0.0000  24.8920   0.0000   0.0000   0.0000  24.8920 " ConfE="      -5949.8170" DelE="          0.0000"
Cr    -3.38522624    0.01946957   -0.03073611       1
Co     0.04366748   -3.47668723   -0.05254529       2
Ni     3.62123726    0.06790345    0.00033826       3
Co     0.10327581    3.61491076   -0.03705772       4
Co     0.06163680    0.05651225   -3.59333445       5
Ni     0.09142895    0.04369084    3.52967273       6
Co    -1.70891358    0.03138799   -1.74725326       7
Cr    -1.61489836    0.06296399    1.64825769       8
Co     0.03672236   -1.72790039   -1.82559017       9
Co     0.08261166   -1.70978689    1.73154069      10
Co    -1.67696187    1.87513108   -0.01647372      11
Ni     1.84860003   -1.72140320   -0.01699505      12
Co     1.83441102    1.82227482   -0.02936691      13
Co     0.06747894    1.81345101   -1.79921660      14
Co     0.10070336    1.86135132    1.75140888      15
Co     1.84138293    0.05052918   -1.80168008      16
Ni     1.83207591    0.06704225    1.76313733      17
Co     0.00000000    0.00000000    0.00000000      18
          18
Lattice="  24.8920   0.0000   0.0000   0.0000  24.8920   0.0000   0.0000   0.0000  24.8920 " ConfE="      -5949.3538" DelE="          0.4632"
Cr    -3.30925120   -0.01769233   -0.02189367       1
Co     0.02041981   -3.41259848   -0.05340820       2
Ni     3.62310598    0.06414973    0.00424833       3
Co     0.09266085    3.61114199   -0.03803339       4
Co     0.09278768    0.06913169   -3.66530354       5
Ni     0.09351335    0.05697713    3.56627955       6
Co    -1.70445939    0.09118916   -1.95483681       7
Cr    -1.65819712    0.11863714    1.79824343       8
Co     0.05412960   -1.75393749   -1.96182362       9
Co     0.15676632   -1.75983763    1.87317277      10
Co    -1.64738852    1.79481603   -0.02599647      11
Ni     1.79323509   -1.69360125   -0.02064333      12
Co     1.81424977    1.80365302   -0.02760768      13
Co     0.08178732    1.77794336   -1.78048424      14
Co     0.08508750    1.83596021    1.74164013      15
Co     1.82425610    0.04207040   -1.80263612      16
Ni     1.79367825    0.06994133    1.74469936      17
Co    -0.60381678   -0.59909500   -0.00811663      18
          18
Lattice="  24.8920   0.0000   0.0000   0.0000  24.8920   0.0000   0.0000   0.0000  24.8920 " ConfE="      -5949.9795" DelE="         -0.1625"
Cr    -3.46600144    0.05339658   -0.02296926       1
Co     0.06088771   -3.50882436   -0.04486539       2
Ni     3.63621643    0.06929341    0.00311835       3
Co     0.10152042    3.62612337   -0.03466404       4
Co     0.08559268    0.06690637   -3.62233701       5
Ni     0.09419305    0.05198557    3.54299950       6
Co    -1.65540103    0.07825137   -1.77926148       7
Cr    -1.59499139    0.08870643    1.63795266       8
Co     0.07308768   -1.69833897   -1.83306104       9
Co     0.08568579   -1.66471984    1.72255662      10
Co    -1.64483078    1.81229164   -0.01325402      11
Ni     1.80324754   -1.68552439   -0.02500362      12
Co     1.83827831    1.82455093   -0.02792995      13
Co     0.09652843    1.80381446   -1.77529535      14
Co     0.09924314    1.84255201    1.73387380      15
Co     1.85238404    0.06530583   -1.79853241      16
Ni     1.81363501    0.08078491    1.74107377      17
Co    -1.64151909   -1.62698239   -0.03272882      18
