          18
Lattice="  24.8920   0.0000   0.0000   0.0000  24.8920   0.0000   0.0000   0.0000  24.8920 " ConfE="      -5933.6502" DelE="          0.0000"
Cr    -0.08752796    0.08397716    3.55543972       1
Ni     0.08350154   -3.47863665   -0.03548384       2
Co    -3.51656531   -0.00087330   -0.01649536       3
Ni     0.03190442    0.07251806   -3.51358719       4
Co     3.61164805    0.00964085   -0.01445731       5
Co     0.08475189    3.49490073   -0.07307144       6
Ni    -1.71810383   -1.79432002    0.03495598       7
Co     1.33373087    2.10899030   -1.85741361       8
Ni     0.00464233   -1.71646961    1.85193093       9
Co    -1.83967592    1.70216565    0.23136926      10
Co     0.01648073    1.77462394    1.77360396      11
Cr     1.88906677   -1.82370552    0.07252073      12
Co    -0.83648771    1.73796155   -1.81321314      13
Cr    -1.79957108   -0.24555630   -1.68955060      14
Ni     1.76663058   -0.21734399   -1.70803770      15
Ni     1.81891416   -0.03625270    1.83302352      16
Cr     1.89837512    1.69332312    0.22561338      17
Ni     0.00000000    0.00000000    0.00000000      18
          18
Lattice="  24.8920   0.0000   0.0000   0.0000  24.8920   0.0000   0.0000   0.0000  24.8920 " ConfE="      -5933.0138" DelE="          0.6364"
Cr    -0.15230769    0.09588107    3.45908656       1
Ni     0.08189200   -3.51453064   -0.03739240       2
Co    -3.50389503    0.00822391    0.01011326       3
Ni     0.02311783    0.02707587   -3.54843280       4
Co     3.61128045    0.01615467   -0.01080159       5
Co     0.12003895    3.55443421   -0.07212275       6
Ni    -1.73158098   -1.88433575   -0.01689185       7
Co     1.31569148    2.39871160   -1.99479876       8
Ni     0.06124727   -1.87008085    1.89776071       9
Co    -1.90741933    1.94275327    0.09349955      10
Co     0.04504912    1.96948116    1.81395968      11
Cr     1.78079272   -1.73046185    0.04552829      12
Co    -0.36060935    1.16551147   -1.36653380      13
Cr    -1.93762635   -0.21622404   -1.65159923      14
Ni     1.75003265   -0.10525068   -1.72102505      15
Ni     1.76436940   -0.02081628    1.81348687      16
Cr     1.72764818    1.63125888    0.12118766      17
Ni    -0.61414897    0.02692245    0.73670464      18
          18
Lattice="  24.8920   0.0000   0.0000   0.0000  24.8920   0.0000   0.0000   0.0000  24.8920 " ConfE="      -5937.5635" DelE="         -3.9132"
Cr     0.01286865    0.07563373    3.57422472       1
Ni     0.08885331   -3.46855852   -0.04797840       2
Co    -3.53280772    0.02687386   -0.04931774       3
Ni     0.04407919    0.01083724   -3.54259455       4
Co     3.63054099    0.00129903   -0.02220944       5
Co     0.10152087    3.58760997   -0.01848991       6
Ni    -1.69412095   -1.75856172   -0.04261212       7
Co     0.10330582    1.83864008   -1.78183765       8
Ni     0.05842601   -1.73615429    1.82064194       9
Co    -1.70702954    1.80089267   -0.05918119      10
Co     0.04417028    1.79654094    1.72640904      11
Cr     1.88807498   -1.77862834    0.01391543      12
Co     0.05548872   -0.02831739   -0.07182838      13
Cr    -1.62640171    0.05598181   -1.71016495      14
Ni     1.81563880   -0.04726629   -1.78035444      15
Ni     1.81243026    0.01042294    1.76959438      16
Cr     1.82039354    1.71152987    0.00010022      17
Ni    -1.71231023    0.01827128    1.72204370      18
