          18
Lattice="  24.8920   0.0000   0.0000   0.0000  24.8920   0.0000   0.0000   0.0000  24.8920 " ConfE="      -5924.5686" DelE="          0.0000"
Ni     3.50068337    0.01808329    0.06437182       1
Co    -0.05955898    0.03771557   -3.49412125       2
Ni    -0.02568447    0.04419798    3.62902327       3
Ni    -0.01436995    3.60347096    0.02815806       4
Cr     0.05369807   -3.43490986   -0.04820862       5
Cr    -3.59066409    0.00273904   -0.01679027       6
Ni     1.72687557    0.03868959   -1.74429517       7
Cr    -1.72274884   -1.71733121   -0.03911457       8
Co    -1.79547204    0.04703006   -1.68309196       9
Co     1.73303392   -1.77750963    0.02611482      10
Ni    -0.00692516   -1.74361142    1.84193303      11
Cr    -1.75972957    0.02056262    1.79115589      12
Cr    -1.77261407    1.81358957   -0.02570161      13
Cr     1.70712959    1.80150003    0.05133331      14
Co    -0.03859257    1.84083721   -1.72974748      15
Co     1.72564636    0.04586629    1.83269829      16
Cr    -0.02286610    1.81075003    1.81651219      17
Ni     0.00000000    0.00000000    0.00000000      18
          18
Lattice="  24.8920   0.0000   0.0000   0.0000  24.8920   0.0000   0.0000   0.0000  24.8920 " ConfE="      -5923.9171" DelE="          0.6514"
Ni     3.57210236    0.05828460    0.06044278       1
Co    -0.04204574    0.02349215   -3.48584701       2
Ni    -0.01764158    0.02497243    3.62813576       3
Ni    -0.02215440    3.59340701    0.02398079       4
Cr     0.04394119   -3.50219268   -0.01955502       5
Cr    -3.69785117    0.07255874    0.00065701       6
Ni     1.83421330    0.07479564   -1.75670030       7
Cr    -1.99385119   -1.67047152    0.05171537       8
Co    -1.87999044    0.11217527   -1.71563688       9
Co     2.00563135   -1.78410745    0.16866022      10
Ni    -0.00675736   -1.71230597    1.72799551      11
Cr    -1.71845758    0.02027995    1.77015332      12
Cr    -1.68648524    1.66593168   -0.03273345      13
Cr     1.63214523    1.71243072    0.04287128      14
Co    -0.02112672    1.78332167   -1.69948880      15
Co     1.69457443    0.06870128    1.77439696      16
Cr    -0.00982833    1.75321231    1.78112347      17
Ni     0.00454475   -1.10032472   -0.89054102      18
          18
Lattice="  24.8920   0.0000   0.0000   0.0000  24.8920   0.0000   0.0000   0.0000  24.8920 " ConfE="      -5924.4581" DelE="          0.1105"
Ni     3.51646234    0.03298487    0.06739369       1
Co    -0.03707333    0.05544276   -3.54169891       2
Ni    -0.01716038    0.04165936    3.65780497       3
Ni    -0.02099805    3.61441787    0.03413024       4
Cr    -0.00186221   -3.51988345    0.02964503       5
Cr    -3.64570080    0.01532948   -0.00416737       6
Ni     1.72340167    0.05803902   -1.70928728       7
Cr    -1.70071222   -1.55219552    0.00752953       8
Co    -1.76443101    0.06338854   -1.66574994       9
Co     1.76244139   -1.72362658    0.07339916      10
Ni    -0.01168581   -1.70927935    1.79837980      11
Cr    -1.71885112    0.04195768    1.81355182      12
Cr    -1.65714483    1.67482396   -0.00929797      13
Cr     1.61625596    1.73722784    0.05918242      14
Co    -0.02973014    1.80090682   -1.69684861      15
Co     1.68074266    0.08062855    1.79144545      16
Cr    -0.00476620    1.79109211    1.81883298      17
Ni     0.00980911   -1.71438110   -1.71552391      18
