          18
Lattice="  24.8920   0.0000   0.0000   0.0000  24.8920   0.0000   0.0000   0.0000  24.8920 " ConfE="      -5943.0650" DelE="          0.0000"
Ni    -0.01580213   -0.01472813    3.51238283       1
Cr     3.50657644    0.00970508   -0.01278692       2
Cr     0.00962446    0.03083648   -3.57117404       3
Co    -3.60040450   -0.01685191   -0.06279209       4
Cr    -0.03587920   -3.57966974   -0.05509273       5
Cr     0.05093854    3.54252474   -0.03917908       6
Ni    -0.00928940   -1.75663394    1.71239749       7
Co     0.07239217    1.76107281    1.78738999       8
Co     1.82169846   -1.75482100   -0.00769878       9
Ni     1.76514325    1.73224601    0.02184922      10
Ni    -1.82004925   -0.01646675    1.75445733      11
Ni     1.76748215    0.00997142   -1.81348136      12
Ni    -1.79079716    0.00117979   -1.80309266      13
Co    -1.83749326   -1.80149576   -0.01946207      14
Ni    -1.76843191    1.78125663   -0.01465008      15
Ni    -0.01101590   -1.77353711   -1.78105438      16
Co     0.00140627    1.80049149   -1.83067293      17
Ni     0.00000000    0.00000000    0.00000000      18
          18
Lattice="  24.8920   0.0000   0.0000   0.0000  24.8920   0.0000   0.0000   0.0000  24.8920 " ConfE="      -5942.4437" DelE="          0.6213"
Ni     0.00620157   -0.01912747    3.48580529       1
Cr     3.41661886    0.03234156    0.01684797       2
Cr     0.01608093    0.01926629   -3.58604964       3
Co    -3.59075391   -0.01701343   -0.04958378       4
Cr    -0.04963418   -3.64313213   -0.05706738       5
Cr     0.04043936    3.61227849   -0.05611643       6
Ni    -0.05379619   -1.88303364    1.75230484       7
Co     0.05901067    1.89029224    1.82294546       8
Co     1.87453725   -1.93382957   -0.06088854       9
Ni     1.78099435    1.91682040   -0.06063592      10
Ni    -1.73375724   -0.00681160    1.72049766      11
Ni     1.73730908    0.01415546   -1.76945906      12
Ni    -1.74773554    0.00325379   -1.76876020      13
Co    -1.81820908   -1.80444980   -0.00498235      14
Ni    -1.69598236    1.77476497   -0.00306212      15
Ni    -0.00210941   -1.75909320   -1.72390176      16
Co     0.00363992    1.80926458   -1.82982025      17
Ni     0.65859630   -0.00822757    0.56266819      18
          18
Lattice="  24.8920   0.0000   0.0000   0.0000  24.8920   0.0000   0.0000   0.0000  24.8920 " ConfE="      -5943.5625" DelE="         -0.4975"
Ni    -0.03086971   -0.01780735    3.53147620       1
Cr     3.56564641    0.02381552   -0.05464272       2
Cr     0.01173872    0.02085829   -3.57629493       3
Co    -3.61369602   -0.01393076   -0.05733344       4
Cr    -0.04333834   -3.62746199   -0.06497187       5
Cr     0.04125709    3.58460321   -0.05127525       6
Ni    -0.02713253   -1.75628860    1.66040229       7
Co     0.02388318    1.77837818    1.73712242       8
Co     1.80923285   -1.79353870   -0.04832207       9
Ni     1.72661576    1.75378947   -0.02060573      10
Ni    -1.77640775   -0.00829524    1.72397467      11
Ni     1.73841451    0.01077067   -1.76392518      12
Ni    -1.76625753    0.00439399   -1.77325627      13
Co    -1.83766210   -1.79650426   -0.02228750      14
Ni    -1.74407105    1.77209313   -0.02236214      15
Ni    -0.02195458   -1.75174522   -1.74012637      16
Co    -0.01058959    1.79640007   -1.82627887      17
Ni     1.75098556   -0.01582395    1.71195988      18
