          18
Lattice="  24.8920   0.0000   0.0000   0.0000  24.8920   0.0000   0.0000   0.0000  24.8920 " ConfE="      -5936.9043" DelE="          0.0000"
Ni    -3.40603668    0.00149354    0.01275042       1
Ni     0.03390341    0.01633900    3.50306616       2
Cr     3.70510018    0.01384641   -0.05364354       3
Ni     0.11331757    0.00927178   -3.59921169       4
Cr     0.07791433   -3.55380228   -0.02740802       5
Co     0.07485411    3.52463608    0.00469427       6
Cr    -1.68816549   -1.74831567   -0.04387904       7
Co    -1.65155133    1.72884853   -0.02646602       8
Ni     0.03238156   -1.71363818    1.73484473       9
Ni     0.07186288    1.74251865    1.74451302      10
Co    -1.66844132    0.01145376   -1.83263355      11
Cr     1.91623048    0.02230441    1.71687926      12
Ni     1.87137285    0.00448299   -1.80657045      13
Co     0.06983866   -1.79693747   -1.78023397      14
Ni     0.10527009    1.76674311   -1.82436409      15
Co     1.83581070   -1.74931616   -0.02938836      16
Ni     1.87764788    1.75367924   -0.03701078      17
Cr     0.00000000    0.00000000    0.00000000      18
          18
Lattice="  24.8920   0.0000   0.0000   0.0000  24.8920   0.0000   0.0000   0.0000  24.8920 " ConfE="      -5936.2881" DelE="          0.6161"
Ni    -3.35771591    0.00625623    0.01137847       1
Ni     0.02813840    0.00918593    3.44293509       2
Cr     3.66636856    0.01730513   -0.03526054       3
Ni     0.10963098    0.01079441   -3.60169668       4
Cr     0.12026686   -3.64238835   -0.04915851       5
Co     0.07670654    3.58866871   -0.00374186       6
Cr    -1.70852104   -1.92247374   -0.07514622       7
Co    -1.68362717    1.87806830   -0.04331152       8
Ni     0.09996916   -1.87475694    1.77283093       9
Ni     0.09248732    1.86376265    1.77576098      10
Co    -1.65249200    0.01826559   -1.78706543      11
Cr     1.87790687    0.01413034    1.69882998      12
Ni     1.82224190    0.00293489   -1.76086166      13
Co     0.02815888   -1.77987105   -1.70566394      14
Ni     0.07907076    1.76278833   -1.79501287      15
Co     1.79670465   -1.73554452   -0.00614892      16
Ni     1.82097230    1.74085193   -0.01755770      17
Cr    -0.75847053   -0.02531007    0.66884632      18
          18
Lattice="  24.8920   0.0000   0.0000   0.0000  24.8920   0.0000   0.0000   0.0000  24.8920 " ConfE="      -5937.0393" DelE="         -0.1350"
Ni    -3.48381196    0.00788845   -0.03794834       1
Ni     0.07367638    0.01606594    3.53233933       2
Cr     3.71174650    0.01488722   -0.05831041       3
Ni     0.11431087    0.00766188   -3.60567661       4
Cr     0.09656826   -3.56971616   -0.02549561       5
Co     0.07833218    3.54845704    0.00182775       6
Cr    -1.62219750   -1.70425444   -0.10059979       7
Co    -1.66095993    1.72707347   -0.03443847       8
Ni     0.08463666   -1.69579443    1.69725881       9
Ni     0.09811937    1.70842832    1.69775743      10
Co    -1.64263139   -0.00733413   -1.74966512      11
Cr     1.93488141    0.01730966    1.69737211      12
Ni     1.87265305    0.00007465   -1.80453137      13
Co     0.07280777   -1.79291107   -1.75471995      14
Ni     0.10115864    1.74830107   -1.81297104      15
Co     1.84001008   -1.72371478   -0.02992622      16
Ni     1.86934719    1.72287984   -0.04640103      17
Cr    -1.69682928   -0.02605217    1.68493600      18
