          18
Lattice="  24.8920   0.0000   0.0000   0.0000  24.8920   0.0000   0.0000   0.0000  24.8920 " ConfE="      -5948.7825" DelE="          0.0000"
Ni    -3.54345118    0.00282151    0.03239845       1
Co    -0.09197075    0.04437811   -3.47689569       2
Co     0.00041331   -3.57498950    0.03505204       3
Cr    -0.01095293    3.53055524    0.08219133       4
Co     0.00443041   -0.00274977    3.58355330       5
Co     3.47264933   -0.00116857    0.01075876       6
Ni    -0.06166272   -1.74511867   -1.72985603       7
Co    -0.07070426    1.73073572   -1.74919366       8
Co    -1.82999403   -1.74604147   -0.00714541       9
Co    -1.75290839    1.73610462   -0.00809724      10
Ni    -1.80432850    0.01426275    1.82793805      11
Ni    -0.05714852   -1.76910120    1.77303539      12
Cr     1.75405049   -0.00792067   -1.74588511      13
Co     1.76429388   -1.79234475    0.02339035      14
Cr     1.70368936    1.77100377    0.02228487      15
Co    -0.02398989    1.76455682    1.80880726      16
Co     1.74002399   -0.01339683    1.76305608      17
Cr     0.00000000    0.00000000    0.00000000      18
          18
Lattice="  24.8920   0.0000   0.0000   0.0000  24.8920   0.0000   0.0000   0.0000  24.8920 " ConfE="      -5948.0975" DelE="          0.6850"
Ni    -3.51491622    0.00345356    0.04040482       1
Co    -0.09824932    0.04377550   -3.38797317       2
Co     0.00765920   -3.61990285    0.04068084       3
Cr     0.00843462    3.60289359    0.10582320       4
Co    -0.00078744    0.00153920    3.57184729       5
Co     3.50711260   -0.00038291    0.02200498       6
Ni    -0.02476373   -1.86988272   -1.75516429       7
Co    -0.02590200    1.86408564   -1.76307224       8
Co    -1.85147080   -1.83095465    0.00460400       9
Co    -1.81379913    1.85835257    0.02693218      10
Ni    -1.80101471    0.01498964    1.79445575      11
Ni    -0.07448733   -1.73668259    1.70746547      12
Cr     1.71936658   -0.00934421   -1.69309960      13
Co     1.72536729   -1.74225906   -0.00985733      14
Cr     1.62889742    1.70926816    0.04387844      15
Co    -0.04967465    1.73042630    1.71680582      16
Co     1.69096817   -0.00492142    1.68450681      17
Cr    -0.72003397    0.02368157   -0.63203563      18
          18
Lattice="  24.8920   0.0000   0.0000   0.0000  24.8920   0.0000   0.0000   0.0000  24.8920 " ConfE="      -5948.5871" DelE="          0.1954"
Ni    -3.58928941    0.00230723    0.06187288       1
Co    -0.05179884    0.03232698   -3.52316670       2
Co     0.00723394   -3.60441397    0.03939378       3
Cr    -0.00675817    3.56853552    0.10470586       4
Co     0.00567274   -0.00062429    3.59408830       5
Co     3.51558437   -0.00059893    0.02774856       6
Ni    -0.03123790   -1.75340395   -1.70751619       7
Co    -0.02450543    1.73842783   -1.71401379       8
Co    -1.82453855   -1.75156007    0.00722943       9
Co    -1.75360582    1.74191721    0.00839898      10
Ni    -1.78319918    0.01192683    1.78877770      11
Ni    -0.05167169   -1.75515790    1.74553774      12
Cr     1.67398197    0.02096999   -1.65858045      13
Co     1.75592027   -1.75701641    0.01496965      14
Cr     1.66456953    1.72248707    0.07408808      15
Co    -0.02458428    1.74903687    1.77319045      16
Co     1.70843116   -0.00365248    1.71207412      17
Cr    -1.69926758    0.03715705   -1.65345045      18
