          18
Lattice="  24.8920   0.0000   0.0000   0.0000  24.8920   0.0000   0.0000   0.0000  24.8920 " ConfE="      -5925.6366" DelE="          0.0000"
Ni    -3.48052597   -0.00632916   -0.02243354       1
Ni    -0.05202437    3.44781678   -0.01471792       2
Co     3.57159149   -0.05239619   -0.02786838       3
Co     0.03080217   -3.67568022   -0.02264552       4
Cr     0.04876649    0.00655694    3.51744052       5
Ni     0.02825357   -0.04145045   -3.55988016       6
Ni    -1.74868333   -0.02894899    1.78297246       7
Co    -1.76096460   -0.02854048   -1.78319429       8
Cr    -0.02426803    1.72452508    1.72317905       9
Co    -0.04350176    1.71426932   -1.76753473      10
Co    -1.75282519   -1.86850671    0.02548009      11
Cr     1.79830771    1.79622036   -0.02827018      12
Ni     1.79031030   -1.85016265   -0.02332880      13
Ni     0.04815673   -1.82262434    1.78283566      14
Cr    -0.09277354   -1.81717249   -1.71525761      15
Co     1.84424697   -0.03427183    1.71416793      16
Cr     1.78048621   -0.01035007   -1.73700140      17
Ni     0.00000000    0.00000000    0.00000000      18
          18
Lattice="  24.8920   0.0000   0.0000   0.0000  24.8920   0.0000   0.0000   0.0000  24.8920 " ConfE="      -5924.9683" DelE="          0.6682"
Ni    -3.42057679    0.00553648   -0.02253375       1
Ni    -0.05418705    3.40692035   -0.02197880       2
Co     3.56932713   -0.05120110   -0.02508635       3
Co     0.02298552   -3.68474955   -0.01584600       4
Cr     0.06015749   -0.05074884    3.57548808       5
Ni     0.03164147   -0.05522266   -3.63474888       6
Ni    -1.76084963   -0.08959192    1.92062089       7
Co    -1.78460104   -0.07040892   -1.91223362       8
Cr     0.05463377    1.76142439    1.92613890       9
Co     0.00135998    1.77319466   -1.98807893      10
Co    -1.72597036   -1.82042292    0.04324011      11
Cr     1.71700695    1.74123838   -0.02337985      12
Ni     1.74400157   -1.81593856   -0.01724016      13
Ni     0.04408683   -1.81809366    1.79633731      14
Cr    -0.13533916   -1.70143925   -1.63725700      15
Co     1.78560654   -0.00805793    1.69035576      16
Cr     1.64984045    0.02588210   -1.68327509      17
Ni    -0.80359562    0.88869209    0.00854672      18
          18
Lattice="  24.8920   0.0000   0.0000   0.0000  24.8920   0.0000   0.0000   0.0000  24.8920 " ConfE="      -5925.5563" DelE="          0.0803"
Ni    -3.53045263   -0.06490176   -0.02161294       1
Ni    -0.00362444    3.50319540   -0.01917138       2
Co     3.59414317   -0.06462945   -0.02551489       3
Co     0.03137927   -3.69370799   -0.01459110       4
Cr     0.04542113   -0.01311097    3.55020021       5
Ni     0.02698499   -0.04164087   -3.58162254       6
Ni    -1.72397879   -0.06285801    1.76932311       7
Co    -1.71925197   -0.08511418   -1.76895580       8
Cr     0.05636745    1.62696126    1.68080978       9
Co     0.03166365    1.66224306   -1.74339252      10
Co    -1.73216590   -1.84627294    0.02898706      11
Cr     1.75223455    1.73147692   -0.03121657      12
Ni     1.77523077   -1.83963300   -0.01994623      13
Ni     0.05012430   -1.80763028    1.76956858      14
Cr    -0.09622088   -1.74421197   -1.63995684      15
Co     1.81064247   -0.03583079    1.68574322      16
Cr     1.72589204   -0.03376009   -1.69609064      17
Ni    -1.73047800    1.68876307   -0.01849401      18
