          18
Lattice="  24.8920   0.0000   0.0000   0.0000  24.8920   0.0000   0.0000   0.0000  24.8920 " ConfE="      -5930.4609" DelE="          0.0000"
Ni    -0.00010205   -3.56214464   -0.03771573       1
Ni    -0.03570112   -0.00886691    3.55397427       2
Co    -0.05124923   -0.04944038   -3.53321911       3
Cr    -3.52608957    0.02091937    0.00551784       4
Cr     3.48980095   -0.02589677    0.00245682       5
Cr    -0.04804643    3.55697564    0.00567814       6
Ni    -1.73379051   -1.78373050   -0.04272400       7
Ni    -1.77463318   -0.04200511   -1.78315349       8
Co     1.77400920   -1.78467547    0.01705827       9
Ni    -0.03832017    1.77734317   -1.79997299      10
Co     1.73185618   -0.04045985   -1.74481432      11
Co    -1.80457910    1.78553024   -0.00978881      12
Cr     1.69086702    1.71179964   -0.00444973      13
Co     0.01319491   -1.81311654    1.80229095      14
Cr    -1.75244714   -0.05595760    1.73119929      15
Co     1.74999254   -0.00740580    1.78732890      16
Co    -0.06508925    1.76611466    1.76275917      17
Co     0.00000000    0.00000000    0.00000000      18
          18
Lattice="  24.8920   0.0000   0.0000   0.0000  24.8920   0.0000   0.0000   0.0000  24.8920 " ConfE="      -5929.4577" DelE="          1.0032"
Ni    -0.00788180   -3.52240648   -0.04300126       1
Ni    -0.03759120   -0.01934037    3.54490681       2
Co    -0.04037948   -0.05556505   -3.45549368       3
Cr    -3.62216183    0.04208645    0.03822322       4
Cr     3.58228492    0.00736363    0.01669105       5
Cr    -0.07031714    3.57572299    0.02523252       6
Ni    -1.90908741   -1.82008663   -0.01857493       7
Ni    -1.91708267   -0.00784362   -1.78729293       8
Co     1.95384425   -1.80295734    0.08654609       9
Ni    -0.03951056    1.71335713   -1.73587181      10
Co     1.93535564    0.09313815   -1.76670289      11
Co    -1.82218037    1.74570099   -0.00559047      12
Cr     1.67039774    1.66039828    0.03843976      13
Co    -0.00339483   -1.75162977    1.70684427      14
Cr    -1.73813755   -0.08587117    1.68024388      15
Co     1.74353978   -0.00351741    1.74217098      16
Co    -0.08838689    1.69091977    1.69046583      17
Co     0.08576011   -0.89234590   -0.85568796      18
          18
Lattice="  24.8920   0.0000   0.0000   0.0000  24.8920   0.0000   0.0000   0.0000  24.8920 " ConfE="      -5930.2320" DelE="          0.2288"
Ni    -0.01763977   -3.60208308    0.01153734       1
Ni    -0.03876189   -0.00782680    3.55864994       2
Co    -0.04128451   -0.02727137   -3.55278046       3
Cr    -3.56939565    0.01788991    0.00712495       4
Cr     3.54636553   -0.01643121    0.01194220       5
Cr    -0.06296616    3.59016864    0.01866580       6
Ni    -1.73092523   -1.75548272    0.00450152       7
Ni    -1.76216560   -0.03102011   -1.74747230       8
Co     1.76374691   -1.76041033    0.04256084       9
Ni    -0.02858517    1.74057097   -1.74913390      10
Co     1.73584154   -0.01294495   -1.70820594      11
Co    -1.80249653    1.75953681   -0.00026157      12
Cr     1.67164575    1.68587979    0.02114454      13
Co     0.00474506   -1.78269780    1.77774245      14
Cr    -1.76279658   -0.03038455    1.72092095      15
Co     1.71591908    0.00203295    1.73354790      16
Co    -0.08007800    1.71225223    1.70637523      17
Co     0.01776369   -1.81684746   -1.76337945      18
