          18
Lattice="  24.8920   0.0000   0.0000   0.0000  24.8920   0.0000   0.0000   0.0000  24.8920 " ConfE="      -5943.6167" DelE="          0.0000"
Ni     0.02444136   -3.51573020   -0.02059091       1
Ni    -3.46822401    0.02355746    0.00170614       2
Ni     3.61021447    0.06855867   -0.01004952       3
Cr     0.02279608   -0.01243906    3.56424895       4
Co     0.03470116    3.55813539   -0.03532905       5
Co     0.05471657    0.05705392   -3.55721365       6
Ni     0.02569984   -1.75806042    1.74089954       7
Co    -1.70146336    0.03549364    1.76190828       8
Co     0.03517973   -1.72710837   -1.78020504       9
Co    -1.72690435    0.03991948   -1.79999205      10
Cr     1.82664312   -1.71049553   -0.04672027      11
Cr     1.82476629    0.03071857    1.78268248      12
Co     1.80494348    1.78350874   -0.03026472      13
Cr     1.79416925    0.02717340   -1.79223003      14
Cr    -1.68016986    1.82977920   -0.02744901      15
Co     0.08288583    1.76527353    1.76446434      16
Cr     0.04715697    1.85122449   -1.75644512      17
Ni     0.00000000    0.00000000    0.00000000      18
          18
Lattice="  24.8920   0.0000   0.0000   0.0000  24.8920   0.0000   0.0000   0.0000  24.8920 " ConfE="      -5942.5895" DelE="          1.0273"
Ni     0.00163285   -3.49490251   -0.01359352       1
Ni    -3.47157117    0.04388653    0.00610512       2
Ni     3.60394232    0.05309764   -0.01375493       3
Cr     0.03337443   -0.00387606    3.63200333       4
Co     0.03485371    3.55748805   -0.04104206       5
Co     0.09901888    0.06797892   -3.64715797       6
Ni     0.04492096   -1.75723360    1.83032380       7
Co    -1.67998423    0.07645976    1.89252247       8
Co     0.11329760   -1.72159360   -1.92407059       9
Co    -1.72760267    0.13155491   -2.02626077      10
Cr     1.71163341   -1.66919060   -0.02994295      11
Cr     1.73693110    0.02093502    1.71200681      12
Co     1.77041435    1.74136040   -0.04477790      13
Cr     1.72095913    0.00734916   -1.72970307      14
Cr    -1.59772193    1.67406557   -0.01609117      15
Co     0.07193875    1.70213529    1.70478442      16
Cr     0.04110604    1.79359816   -1.73127589      17
Ni    -1.24417257   -1.12589383   -0.09767732      18
          18
Lattice="  24.8920   0.0000   0.0000   0.0000  24.8920   0.0000   0.0000   0.0000  24.8920 " ConfE="      -5943.0374" DelE="          0.5793"
Ni     0.03946879   -3.54388046   -0.01693495       1
Ni    -3.52234103    0.03405683   -0.00121467       2
Ni     3.63163094    0.06936898   -0.00439532       3
Cr     0.03314117   -0.01023531    3.60247450       4
Co     0.04320436    3.57316103   -0.03548128       5
Co     0.06451394    0.06568241   -3.58428541       6
Ni     0.04916427   -1.72709313    1.74226129       7
Co    -1.67029743    0.05903639    1.72906554       8
Co     0.08313045   -1.66582388   -1.74813020       9
Co    -1.68455539    0.06739444   -1.77532147      10
Cr     1.74706576   -1.64658919   -0.03541656      11
Cr     1.80567820    0.04146227    1.74988814      12
Co     1.77911026    1.74458278   -0.03454960      13
Cr     1.78152718    0.04531308   -1.74673994      14
Cr    -1.60836835    1.71862643   -0.01816149      15
Co     0.08706028    1.71085184    1.71091861      16
Cr     0.06095392    1.83230502   -1.72638956      17
Ni    -1.71627868   -1.70933230   -0.00727622      18
