          18
Lattice="  24.8920   0.0000   0.0000   0.0000  24.8920   0.0000   0.0000   0.0000  24.8920 " ConfE="      -5940.9836" DelE="          0.0000"
Ni    -3.48950067   -0.00443905   -0.00872035       1
Ni     0.04274678    0.00600147   -3.50331274       2
Co     0.04965017    3.58205684   -0.03905475       3
Co    -0.01198323   -0.01942015    3.53004075       4
Co     0.03078710   -3.58481647    0.00859891       5
Co     3.59523968   -0.01993840   -0.00326194       6
Ni    -0.01126128    1.77606934    1.70680514       7
Ni    -1.74791920    0.01248567   -1.72841203       8
Cr    -1.69136473    0.00478092    1.66980347       9
Ni     0.01903109   -1.79060321   -1.76000108      10
Cr     0.02607177    1.77792337   -1.70871683      11
Cr    -1.75767539   -1.87914021   -0.00177761      12
Cr     1.75687013   -0.03333989    1.70336942      13
Co     0.03037827   -1.79524546    1.76538230      14
Co     1.80788011   -1.81196271   -0.01705889      15
Co     1.82397202    1.80770277   -0.02699700      16
Cr     1.81277418   -0.01624636   -1.68990141      17
Co     0.00000000    0.00000000    0.00000000      18
          18
Lattice="  24.8920   0.0000   0.0000   0.0000  24.8920   0.0000   0.0000   0.0000  24.8920 " ConfE="      -5940.2023" DelE="          0.7813"
Ni    -3.44261173    0.03557409   -0.01260551       1
Ni     0.05655507   -0.01681151   -3.55328762       2
Co     0.07082618    3.52925560    0.00996901       3
Co     0.01260201   -0.02510934    3.59288024       4
Co     0.01831936   -3.57129288    0.00569036       5
Co     3.61023400   -0.01724326    0.00395017       6
Ni     0.09288928    1.82140458    1.92365226       7
Ni    -1.80293289   -0.04735300   -1.89675105       8
Cr    -1.66390441    0.01004099    1.80938340       9
Ni     0.01338600   -1.74117433   -1.73921953      10
Cr     0.11267650    1.79784467   -1.87724925      11
Cr    -1.69322242   -1.73528182    0.01107210      12
Cr     1.67114379   -0.02610645    1.63146206      13
Co     0.03305713   -1.74887968    1.74509348      14
Co     1.78466683   -1.77289554   -0.01537042      15
Co     1.77379157    1.76790873   -0.01100594      16
Cr     1.74967237    0.00178236   -1.61192075      17
Co    -0.78388538    0.94087384   -0.04972596      18
          18
Lattice="  24.8920   0.0000   0.0000   0.0000  24.8920   0.0000   0.0000   0.0000  24.8920 " ConfE="      -5940.9500" DelE="          0.0336"
Ni    -3.51437636   -0.03228647   -0.00562006       1
Ni     0.05146090   -0.00344133   -3.50695493       2
Co     0.07529195    3.62893466   -0.03641229       3
Co    -0.01699557   -0.03209420    3.53836968       4
Co     0.03462517   -3.61269088    0.00497729       5
Co     3.60827033   -0.01674031    0.00037903       6
Ni     0.02927553    1.76136897    1.70814161       7
Ni    -1.70484309   -0.02377848   -1.69560793       8
Cr    -1.53606118   -0.06824054    1.53460480       9
Ni     0.02627911   -1.76725535   -1.70803281      10
Cr     0.05976767    1.74296097   -1.69264751      11
Cr    -1.76206843   -1.89353191   -0.01907428      12
Cr     1.66897887   -0.06542842    1.60223699      13
Co     0.03653316   -1.78870594    1.72821196      14
Co     1.80718764   -1.80323183   -0.01684281      15
Co     1.79475142    1.79314042   -0.03199510      16
Cr     1.75700265   -0.00742791   -1.60542184      17
Co    -1.72163006    1.80096807   -0.02504333      18
