          25
Lattice="  24.8920   0.0000   0.0000   0.0000  24.8920   0.0000   0.0000   0.0000  24.8920 " ConfE="      -5923.9034" DelE="          0.0000"
Ni    -2.14754898    2.72862858   -1.78444446       1
Cr    -2.13153080    2.80695412    1.86081660       2
Cr    -0.36609144   -0.84073328    3.68951624       3
Ni    -3.90305700   -0.85296609    0.07957916       4
Ni    -0.35009021   -0.81586103   -3.56028149       5
Ni     3.24122192    0.98133546    1.87662004       6
Ni     3.22571247    1.00409610   -1.78770294       7
Ni     1.42869652    2.74205467   -1.76772875       8
Co     1.39645437    2.78535764    1.86975356       9
Cr    -2.52592320   -2.92631522    0.17946328      10
Co    -0.27196484   -2.72516625   -2.01295209      11
Ni    -0.40196461   -2.64722045    1.89491426      12
Co     3.25689394   -0.79412873   -0.01113734      13
Cr     1.52785954   -2.57990203    0.03524323      14
Cr    -2.23263141   -0.83393768   -1.87512378      15
Cr    -2.14220362   -0.77260298    1.94833506      16
Ni    -0.42079697    1.06066538   -1.99101366      17
Cr    -0.73196966   -1.61231411   -0.20013864      18
Cr    -2.20472152    1.00916302    0.07244433      19
Co     1.36905771   -0.80067888    1.76530831      20
Ni    -0.39052637    1.05452557    1.99882943      21
Ni     1.39551510   -0.77878768   -1.80393035      22
Ni    -0.32732937    2.69287619    0.03493432      23
Cr     0.00000000    0.00000000    0.00000000      24
Co     1.74180434    1.19349130    0.09306066      25
          25
Lattice="  24.8920   0.0000   0.0000   0.0000  24.8920   0.0000   0.0000   0.0000  24.8920 " ConfE="      -5923.3695" DelE="          0.5339"
Ni    -2.06752908    2.65110201   -1.80756238       1
Cr    -2.13706628    2.83641453    1.89031438       2
Cr    -0.35217328   -0.84422719    3.60699999       3
Ni    -3.88472419   -0.84365315    0.05377742       4
Ni    -0.40293277   -1.02081007   -3.58607594       5
Ni     3.23064326    0.98327258    1.84742768       6
Ni     3.13707117    1.02236894   -1.81505880       7
Ni     1.39066998    2.74202853   -1.79618977       8
Co     1.38167099    2.77574839    1.84108039       9
Cr    -2.27787747   -2.70383768    0.05287895      10
Co    -0.36836540   -2.61201546   -1.69725553      11
Ni    -0.38556903   -2.72281105    1.90369297      12
Co     3.24365256   -0.80839772   -0.02063545      13
Cr     1.59390039   -2.66243742    0.05214550      14
Cr    -2.19526551   -0.79352512   -1.86044491      15
Cr    -2.16305981   -0.79919329    1.90427421      16
Ni    -0.24564350    1.07028451   -2.65692978      17
Cr    -0.33845156   -1.13605628    0.21153144      18
Cr    -2.40964014    1.12331022    0.18053311      19
Co     1.42028113   -0.83513503    1.78739756      20
Ni    -0.37327026    0.97943855    1.85346545      21
Ni     1.34769612   -0.76155874   -1.78377970      22
Ni    -0.35448644    2.81294499    0.07256408      23
Cr    -0.37932785    0.50098551   -0.52233308      24
Co     1.61046780    1.03282380    0.11697538      25
          25
Lattice="  24.8920   0.0000   0.0000   0.0000  24.8920   0.0000   0.0000   0.0000  24.8920 " ConfE="      -5927.8088" DelE="         -3.9054"
Ni    -2.12959767    2.69666675   -1.73924399       1
Cr    -2.10956839    2.77374712    1.83788479       2
Cr    -0.35134366   -0.82563016    3.65636014       3
Ni    -3.94550330   -0.81559686    0.05724990       4
Ni    -0.36295191   -0.83485483   -3.52220241       5
Ni     3.16463364    0.98085773    1.78083422       6
Ni     3.18862396    0.99404816   -1.74852227       7
Ni     1.42751877    2.74162489   -1.77079723       8
Co     1.37872261    2.75780807    1.82459007       9
Cr    -2.18304767   -2.52249478   -0.00748515      10
Co    -0.35962720   -2.58916568   -1.73609975      11
Ni    -0.38995691   -2.59132170    1.82448868      12
Co     3.23317940   -0.82102976   -0.00428640      13
Cr     1.44112454   -2.56329230    0.05322980      14
Cr    -2.20919822   -0.83169354   -1.78426391      15
Cr    -2.16652141   -0.81170007    1.90720083      16
Ni     1.42425125    0.97199657   -3.56307515      17
Cr    -0.36875330   -0.81613042    0.00632199      18
Cr    -2.12656680    0.92878462    0.06788391      19
Co     1.39898766   -0.82841849    1.77376072      20
Ni    -0.35952275    0.95508022    1.82870367      21
Ni     1.41524529   -0.81835684   -1.77093419      22
Ni    -0.34366033    2.73388384    0.03356221      23
Cr    -0.33879707    0.96216787   -1.75764719      24
Co     1.38236292    0.93740072    0.01379543      25
