          18
Lattice="  24.8920   0.0000   0.0000   0.0000  24.8920   0.0000   0.0000   0.0000  24.8920 " ConfE="      -5932.5192" DelE="          0.0000"
Ni    -3.41085822    0.01789543   -0.04933557       1
Ni     0.06729477   -3.55818995   -0.10018371       2
Ni     3.64737250   -0.01408926   -0.09221573       3
Co     0.03238262    0.00889444    3.43056166       4
Cr     0.07583172    3.63631634   -0.09769034       5
Co     0.07645568    0.00935370   -3.68511972       6
Ni     0.07019379   -1.77288517    1.67627187       7
Ni    -1.69252542    0.02844260   -1.89916645       8
Co    -1.67307128    1.79554224   -0.09719420       9
Co     0.03820561    1.74820701    1.65826922      10
Cr    -1.70959496   -1.76232838   -0.05071745      11
Ni     0.06180547   -1.76648693   -1.86025641      12
Cr     0.08061970    1.79384607   -1.91070704      13
Cr     1.81756426    1.77657236   -0.08001585      14
Cr     1.82180406    0.01615641   -1.86666761      15
Co     1.86004599    0.04436105    1.68148854      16
Co     1.84268956   -1.72903814   -0.12457262      17
Cr     0.00000000    0.00000000    0.00000000      18
          18
Lattice="  24.8920   0.0000   0.0000   0.0000  24.8920   0.0000   0.0000   0.0000  24.8920 " ConfE="      -5931.7100" DelE="          0.8092"
Ni    -3.37225894    0.01319509   -0.05972464       1
Ni     0.11666621   -3.55740873   -0.11888965       2
Ni     3.61250338   -0.01655713   -0.10041528       3
Co     0.02436409    0.01863199    3.45417603       4
Cr     0.12499909    3.70471137   -0.12010336       5
Co     0.04676790    0.00435838   -3.73807436       6
Ni     0.16021229   -1.89709118    1.71999043       7
Ni    -1.61363069    0.02048647   -1.81996851       8
Co    -1.66041368    1.90691902   -0.13548212       9
Co     0.10694146    1.94377186    1.72016344      10
Cr    -1.65580455   -1.85824201   -0.11739953      11
Ni     0.02323839   -1.81454449   -1.97836751      12
Cr     0.09479459    1.72208061   -1.88681370      13
Cr     1.67637192    1.61269810   -0.10906917      14
Cr     1.83800615    0.02218755   -2.09869731      15
Co     1.79705124    0.12331880    1.79602525      16
Co     1.37932527   -1.05411029   -0.21222031      17
Cr    -0.88641519    0.04184668    0.99250468      18
          18
Lattice="  24.8920   0.0000   0.0000   0.0000  24.8920   0.0000   0.0000   0.0000  24.8920 " ConfE="      -5932.8811" DelE="         -0.3619"
Ni    -3.47752299    0.00040860   -0.10800969       1
Ni     0.08424022   -3.56693621   -0.10845966       2
Ni     3.67267836   -0.01819559   -0.09472964       3
Co     0.06866600    0.01551988    3.47804058       4
Cr     0.08757327    3.63933489   -0.11279784       5
Co     0.08572366    0.00662688   -3.70549377       6
Ni     0.09841239   -1.73741183    1.63848406       7
Ni    -1.66152328    0.02373831   -1.86749782       8
Co    -1.64841245    1.77108188   -0.13537057       9
Co     0.08567538    1.74314526    1.61071242      10
Cr    -1.63313294   -1.71452344   -0.06923031      11
Ni     0.07063399   -1.75257748   -1.86110158      12
Cr     0.09928573    1.75928436   -1.89348160      13
Cr     1.79575136    1.72374221   -0.09490883      14
Cr     1.79162811   -0.00103554   -1.81040981      15
Co     1.82145403    0.06060356    1.63626343      16
Co     1.84055021   -1.69792650   -0.15500834      17
Cr    -1.62961181    0.08907422    1.64880906      18
