          18
Lattice="  24.8920   0.0000   0.0000   0.0000  24.8920   0.0000   0.0000   0.0000  24.8920 " ConfE="      -5938.3959" DelE="          0.0000"
Ni     3.53492595    0.02074623    0.03786438       1
Ni     0.02244243    3.59140378    0.04592082       2
Co     0.03594253   -3.55795249   -0.01547873       3
Cr    -3.52070904    0.10192627    0.02375218       4
Co     0.04424978   -0.01564892   -3.51529708       5
Co    -0.03780133    0.04594145    3.58900025       6
Ni    -1.73980670    0.00467386   -1.70507225       7
Ni    -0.01088467   -1.75427391    1.76053050       8
Ni    -1.76375683    0.01322515    1.77334012       9
Ni     1.76227125    1.80956014    0.02878359      10
Co     0.02842836   -1.81649483   -1.77923225      11
Ni     1.76862214    0.02510982    1.81764384      12
Ni     0.01864576    1.81154271    1.80851691      13
Co     1.80673209   -1.80328826   -0.01691275      14
Co    -1.79360323    1.84756038    0.03372480      15
Co     1.83180896   -0.02910428   -1.80272196      16
Co     0.04209627    1.79572478   -1.76660095      17
Ni     0.00000000    0.00000000    0.00000000      18
          18
Lattice="  24.8920   0.0000   0.0000   0.0000  24.8920   0.0000   0.0000   0.0000  24.8920 " ConfE="      -5937.8413" DelE="          0.5546"
Ni     3.53008727    0.01452486    0.03864161       1
Ni     0.00632044    3.57936581    0.04255338       2
Co     0.02225089   -3.53188709   -0.01275321       3
Cr    -3.43093250    0.08622654    0.01371375       4
Co     0.05690946   -0.00267339   -3.56553713       5
Co    -0.00659570    0.05517602    3.64619500       6
Ni    -1.79366934    0.08128589   -1.92861202       7
Ni     0.02937885   -1.76886959    1.90076607       8
Ni    -1.77295882    0.05961545    1.93552898       9
Ni     1.70452265    1.75676510    0.01819564      10
Co     0.10482372   -1.88921111   -1.95578880      11
Ni     1.74160720    0.01740818    1.80825647      12
Ni     0.01306337    1.79487796    1.81395745      13
Co     1.74458331   -1.77610595   -0.01787686      14
Co    -1.76733494    1.75458589    0.01718103      15
Co     1.80748071   -0.04428705   -1.79744703      16
Co     0.03350018    1.75637134   -1.76931130      17
Ni    -0.81268414   -0.77198854   -0.06002264      18
          18
Lattice="  24.8920   0.0000   0.0000   0.0000  24.8920   0.0000   0.0000   0.0000  24.8920 " ConfE="      -5938.4078" DelE="         -0.0120"
Ni     3.54450344    0.02657669    0.03635374       1
Ni     0.02140879    3.60468989    0.04378564       2
Co     0.05035352   -3.58875271   -0.00575845       3
Cr    -3.53765554    0.16702174   -0.00787569       4
Co     0.04525917   -0.00839568   -3.54636878       5
Co    -0.02697652    0.05597857    3.61010538       6
Ni    -1.68737474    0.04092539   -1.71365257       7
Ni     0.01562316   -1.72256350    1.77134978       8
Ni    -1.74139818    0.05079453    1.78378100       9
Ni     1.73325045    1.78773659    0.02089705      10
Co     0.05920793   -1.80202639   -1.79429088      11
Ni     1.74715843    0.02987340    1.78298614      12
Ni     0.02051039    1.80085492    1.78837768      13
Co     1.76324708   -1.77877015   -0.02256199      14
Co    -1.77693301    1.81624169    0.02872816      15
Co     1.81425548   -0.02629826   -1.78699882      16
Co     0.05659732    1.78094650   -1.75867474      17
Ni    -1.71205369   -1.68964526    0.00462901      18
