          18
Lattice="  24.8920   0.0000   0.0000   0.0000  24.8920   0.0000   0.0000   0.0000  24.8920 " ConfE="      -5945.1765" DelE="          0.0000"
Ni    -0.03614414    0.00680544   -3.59285562       1
Ni    -0.00933060   -3.62348633   -0.00939639       2
Ni     3.46889675    0.00688374   -0.01647025       3
Co    -0.02175928    3.45765853   -0.00858867       4
Co    -0.06501495    0.03470919    3.46328644       5
Co    -3.55069735    0.03179418    0.00244126       6
Cr    -1.72516169    0.09839189    1.72017590       7
Cr    -1.68884558    1.79945412   -0.01013082       8
Ni     1.73851271   -1.80064420   -0.02823112       9
Cr     1.67289778    1.80133368    0.08624605      10
Cr     1.71521969    0.06876748    1.77132401      11
Ni    -0.02453677   -1.82157516    1.76473739      12
Co    -1.80099125   -1.76537118    0.00900885      13
Co    -1.79128961    0.02075075   -1.76291236      14
Co    -0.02929447   -1.78944462   -1.81110630      15
Cr     1.72767418    0.05538899   -1.82235035      16
Co     0.01161419    1.75886363   -1.82638144      17
Ni     0.00000000    0.00000000    0.00000000      18
          18
Lattice="  24.8920   0.0000   0.0000   0.0000  24.8920   0.0000   0.0000   0.0000  24.8920 " ConfE="      -5944.5144" DelE="          0.6621"
Ni    -0.03636294    0.02988019   -3.57265846       1
Ni    -0.00952069   -3.62658122    0.00017760       2
Ni     3.55197463   -0.02268716   -0.04133626       3
Co    -0.03511409    3.48401596   -0.00658644       4
Co    -0.06572317    0.02395159    3.46204897       5
Co    -3.63876429    0.00253774   -0.04467437       6
Cr    -1.97510522   -0.08321248    1.67935815       7
Cr    -1.95465049    1.79288589   -0.07431230       8
Ni     1.71936965   -1.75606014   -0.01543082       9
Cr     1.88944647    1.81836201   -0.02282970      10
Cr     1.90217977   -0.02414208    1.76584161      11
Ni    -0.02787739   -1.75342882    1.72734323      12
Co    -1.78387169   -1.71837542    0.00266219      13
Co    -1.75525523    0.05405793   -1.68223107      14
Co    -0.03284980   -1.74700367   -1.77038452      15
Cr     1.64533966    0.06729329   -1.69292242      16
Co     0.00651070    1.73959879   -1.71672336      17
Ni    -0.06207423    1.07743435    1.10142108      18
          18
Lattice="  24.8920   0.0000   0.0000   0.0000  24.8920   0.0000   0.0000   0.0000  24.8920 " ConfE="      -5945.0766" DelE="          0.0999"
Ni    -0.03704827    0.01859041   -3.59589731       1
Ni    -0.01144767   -3.64367106   -0.00663753       2
Ni     3.50921335   -0.01152123   -0.03575208       3
Co    -0.03226392    3.53825901   -0.05539985       4
Co    -0.05107279   -0.01467428    3.52853053       5
Co    -3.60446808    0.01488293   -0.02261116       6
Cr    -1.74134101    0.00733001    1.62545793       7
Cr    -1.72012929    1.72834371   -0.08327701       8
Ni     1.70493982   -1.77592765   -0.03974657       9
Cr     1.73130719    1.75290809   -0.01133415      10
Cr     1.70753785    0.01079514    1.66017247      11
Ni    -0.02642304   -1.78441491    1.73962405      12
Co    -1.77663490   -1.73278336    0.00129635      13
Co    -1.73833905    0.03621207   -1.69925831      14
Co    -0.03554630   -1.77311697   -1.80046666      15
Cr     1.66666348    0.03600824   -1.74807142      16
Co     0.02680173    1.73379583   -1.75182646      17
Ni    -0.01552789    1.75551746    1.72349131      18
