          18
Lattice="  24.8920   0.0000   0.0000   0.0000  24.8920   0.0000   0.0000   0.0000  24.8920 " ConfE="      -5927.5556" DelE="          0.0000"
Ni    -0.01245515    3.44154243   -0.09202811       1
Ni     3.53018692   -0.07479612   -0.12670273       2
Ni    -0.02031019   -0.08060851   -3.67610486       3
Cr     0.08059346    0.14559138    3.18350658       4
Co    -3.55514149   -0.07560096   -0.06708468       5
Co    -0.08916707   -3.64215231   -0.12202960       6
Ni    -1.77078264    1.70366574   -0.08414062       7
Cr    -1.77347571   -0.05946689    1.64476864       8
Co     1.77024022    1.71278788   -0.10818239       9
Ni    -1.76784089   -0.07331047   -1.87200464      10
Ni    -0.00871447   -1.84237855   -1.86522363      11
Ni     1.74607951   -1.87373680   -0.10100136      12
Co     1.76228904   -0.05121567    1.62548073      13
Ni     1.74492776   -0.06871839   -1.87429190      14
Co    -1.80079662   -1.85061497   -0.10970128      15
Co    -0.05280440   -1.89828540    1.67352813      16
Co    -0.03989042    1.70867948   -1.92806375      17
Cr     0.00000000    0.00000000    0.00000000      18
          18
Lattice="  24.8920   0.0000   0.0000   0.0000  24.8920   0.0000   0.0000   0.0000  24.8920 " ConfE="      -5926.6818" DelE="          0.8737"
Ni    -0.02176384    3.41389308   -0.10497025       1
Ni     3.56315745   -0.07254274   -0.13038695       2
Ni    -0.02303019   -0.07787879   -3.67412001       3
Cr     0.08414133    0.02959919    3.31953514       4
Co    -3.63025627   -0.09968076   -0.08599825       5
Co    -0.09482004   -3.63374769   -0.10848148       6
Ni    -1.94126295    1.71140728   -0.17959139       7
Cr    -1.91400662   -0.12707572    1.60532634       8
Co     1.85750188    1.73604368   -0.14587717       9
Ni    -1.76559423   -0.08136599   -1.85203135      10
Ni    -0.01860798   -1.82759627   -1.84181144      11
Ni     1.73021894   -1.83675837   -0.09329318      12
Co     1.85722960   -0.08510295    1.64774556      13
Ni     1.72280751   -0.07146416   -1.83780181      14
Co    -1.79540547   -1.81403877   -0.09509352      15
Co    -0.05718109   -1.78918215    1.63780325      16
Co    -0.04533313    1.67318661   -1.85726242      17
Cr    -0.01942958    0.84339569    0.76733096      18
          18
Lattice="  24.8920   0.0000   0.0000   0.0000  24.8920   0.0000   0.0000   0.0000  24.8920 " ConfE="      -5927.1088" DelE="          0.4468"
Ni    -0.01294153    3.49348801   -0.13099358       1
Ni     3.52642654   -0.07761102   -0.12566347       2
Ni    -0.02029546   -0.08451015   -3.68883279       3
Cr     0.01854443   -0.10073537    3.44412692       4
Co    -3.57047161   -0.08148845   -0.07361862       5
Co    -0.08754972   -3.67809550   -0.13776752       6
Ni    -1.74099623    1.65733249   -0.11250987       7
Cr    -1.65778802   -0.14094684    1.56927541       8
Co     1.75772979    1.70610721   -0.12800093       9
Ni    -1.74982294   -0.09323854   -1.87688216      10
Ni    -0.01307365   -1.85708106   -1.87067576      11
Ni     1.73893542   -1.87543207   -0.11932635      12
Co     1.70797606   -0.09286487    1.61639580      13
Ni     1.72574632   -0.08310268   -1.86605328      14
Co    -1.79831668   -1.85844559   -0.12666851      15
Co    -0.04816071   -1.86574080    1.62538217      16
Co    -0.03522523    1.69932709   -1.90845095      17
Cr     0.07499484    1.61372165    1.57778736      18
