          18
Lattice="  24.8920   0.0000   0.0000   0.0000  24.8920   0.0000   0.0000   0.0000  24.8920 " ConfE="      -5938.1172" DelE="          0.0000"
Ni    -0.06969141   -3.53964234   -0.08438256       1
Co     3.46899722    0.07464044   -0.08253934       2
Co     0.01521590    3.51902467    0.02640135       3
Ni    -0.06955010    0.04043495   -3.56592299       4
Cr    -3.66941297   -0.00088271    0.01828950       5
Cr    -0.05650137    0.04167791    3.45125477       6
Ni     1.72260076    0.03764829   -1.79118787       7
Ni    -0.02158276    1.79645762   -1.72541838       8
Cr    -0.00447642    1.85981948    1.68221263       9
Co     1.67531664    0.13266918    1.67627440      10
Ni    -1.85243645    0.02238292    1.74065063      11
Co    -0.11498428   -1.74829174   -1.83725605      12
Co     1.68412543   -1.76122379   -0.02811492      13
Co    -1.83893176   -1.74987927   -0.02607037      14
Cr    -0.00066687   -1.79990916    1.71878820      15
Cr    -1.83208852    0.00595488   -1.76077312      16
Cr    -1.87800949    1.75266989   -0.04416575      17
Cr     0.00000000    0.00000000    0.00000000      18
          18
Lattice="  24.8920   0.0000   0.0000   0.0000  24.8920   0.0000   0.0000   0.0000  24.8920 " ConfE="      -5937.2609" DelE="          0.8562"
Ni    -0.06138246   -3.52425840   -0.08196544       1
Co     3.40051538    0.08718053   -0.08594954       2
Co     0.01261096    3.46845278    0.00690933       3
Ni    -0.09623411    0.02559023   -3.65210761       4
Cr    -3.64216831    0.01074690    0.00967559       5
Cr    -0.08307345    0.00204103    3.58188347       6
Ni     1.72399584   -0.03297606   -1.97169582       7
Ni    -0.09099352    1.84196595   -1.91945467       8
Cr    -0.06829734    1.83173749    1.83347800       9
Co     1.72032488    0.05623579    1.85785884      10
Ni    -1.80007534    0.03912642    1.72556152      11
Co    -0.11885137   -1.69312371   -1.82408849      12
Co     1.63266549   -1.66947381   -0.02040642      13
Co    -1.79112997   -1.69521989   -0.02973934      14
Cr     0.03766226   -1.65700943    1.64326878      15
Cr    -1.73853546    0.00345881   -1.71811807      16
Cr    -1.83649310    1.72406878   -0.08114778      17
Cr     0.87722363    0.90615876   -0.04348247      18
          18
Lattice="  24.8920   0.0000   0.0000   0.0000  24.8920   0.0000   0.0000   0.0000  24.8920 " ConfE="      -5937.8962" DelE="          0.2210"
Ni    -0.07249761   -3.55085914   -0.08422148       1
Co     3.50627502    0.03127854   -0.05382897       2
Co    -0.04463967    3.58275799   -0.00222729       3
Ni    -0.08121052    0.03450760   -3.58446885       4
Cr    -3.67200120    0.00135309    0.01305016       5
Cr    -0.06727384    0.02362760    3.50145521       6
Ni     1.68733589    0.01465323   -1.76991947       7
Ni    -0.07140466    1.76574388   -1.73025857       8
Cr    -0.06715590    1.80307500    1.68327364       9
Co     1.64340801    0.10129225    1.68638970      10
Ni    -1.82369562    0.00747018    1.71295139      11
Co    -0.13263591   -1.71989208   -1.81435781      12
Co     1.63594786   -1.71017737   -0.00202424      13
Co    -1.81376882   -1.72018569   -0.03722538      14
Cr     0.01617677   -1.75637353    1.66409049      15
Cr    -1.82271167   -0.02554170   -1.73612975      16
Cr    -1.84723294    1.71836359   -0.05280716      17
Cr     1.70784452    1.77546792   -0.01333155      18
