          18
Lattice="  24.8920   0.0000   0.0000   0.0000  24.8920   0.0000   0.0000   0.0000  24.8920 " ConfE="      -5944.9187" DelE="          0.0000"
Ni     0.06388176   -0.04462451   -3.45578603       1
Cr     3.53014470    0.01906085    0.09613556       2
Cr     0.01996173   -0.02722658    3.66498921       3
Co    -3.46798142   -0.04692119    0.04766847       4
Ni     0.03722795   -3.59067013    0.06762099       5
Cr     0.09056807    3.48584982    0.06812229       6
Ni     0.08477733   -1.78225173   -1.72492326       7
Co     0.03648452    1.74720590   -1.70115822       8
Ni     1.80974564   -1.75799058    0.07610778       9
Ni     1.79574978    1.70266680    0.06387167      10
Cr    -1.75110770   -0.05175667   -1.67934143      11
Ni     1.77470609   -0.03604334    1.88199694      12
Ni    -1.73083011   -0.04225922    1.83007064      13
Cr    -1.72711285   -1.82056976    0.02258125      14
Cr    -1.71936931    1.75152711    0.03551345      15
Ni     0.02582408   -1.81159680    1.84095857      16
Co     0.01080512    1.73310260    1.82626374      17
Co     0.00000000    0.00000000    0.00000000      18
          18
Lattice="  24.8920   0.0000   0.0000   0.0000  24.8920   0.0000   0.0000   0.0000  24.8920 " ConfE="      -5940.7780" DelE="          4.1407"
Ni     0.20108322   -0.98828612   -2.92578655       1
Cr     3.69654368   -0.00977165    0.12219185       2
Cr     0.03081551   -0.02247524    3.65243180       3
Co    -3.53489846   -0.05355124    0.05409734       4
Ni     0.05578994   -3.49756256    0.00902954       5
Cr     0.16054332    3.57975334    0.16899830       6
Ni     0.03165993   -0.88466197   -0.62344780       7
Co     0.00468087    1.31750342   -2.89281442       8
Ni     2.01798653   -1.78835125    0.15115513       9
Ni     2.05535259    1.68241117    0.16659892      10
Cr    -1.84107812    0.04289847   -1.76184054      11
Ni     1.81424802   -0.03457201    1.88242786      12
Ni    -1.73976292   -0.03955961    1.79806459      13
Cr    -1.91201885   -1.86763022    0.05257690      14
Cr    -2.03291534    1.75116481    0.12277743      15
Ni     0.03588610   -1.77283307    1.79461998      16
Co     0.01207036    1.70216542    1.78995743      17
Co    -0.03896602    1.50365602   -0.68187617      18
          18
Lattice="  24.8920   0.0000   0.0000   0.0000  24.8920   0.0000   0.0000   0.0000  24.8920 " ConfE="      -5944.8063" DelE="          0.1124"
Ni     0.06831500   -1.79095493   -1.70196237       1
Cr     3.55141676    0.02420963    0.09851542       2
Cr     0.02071305   -0.02744484    3.66309610       3
Co    -3.45927770   -0.05075850    0.04700642       4
Ni     0.03167657   -3.59451939    0.07569657       5
Cr     0.08784345    3.49234046    0.06072541       6
Ni     0.03346410   -0.03590348    0.04849767       7
Co     0.09938540   -0.07282073   -3.42048344       8
Ni     1.82567427   -1.76981006    0.08538571       9
Ni     1.80148442    1.70155856    0.06567952      10
Cr    -1.76408003   -0.05947035   -1.70619955      11
Ni     1.78813803   -0.03756878    1.88873532      12
Ni    -1.73347955   -0.04483371    1.83029950      13
Cr    -1.75566312   -1.84401463    0.02857226      14
Cr    -1.73451147    1.76786396    0.02820875      15
Ni     0.02259403   -1.82085216    1.84882566      16
Co     0.01358215    1.73916526    1.82940777      17
Co     0.03023930    1.73069289   -1.69548031      18
