          19
Lattice="  24.8920   0.0000   0.0000   0.0000  24.8920   0.0000   0.0000   0.0000  24.8920 " ConfE="      -5943.6675" DelE="          0.0000"
Co     3.59784651    0.01892829   -0.03511577       1
Co    -0.00158939    0.03245797    3.55344499       2
Ni     0.03360980    0.03830267   -3.56834943       3
Cr    -0.04344717   -3.51727697   -0.04090693       4
Co     0.00496083    3.61586076   -0.01119479       5
Cr    -3.56258306   -0.01158779   -0.01940034       6
Cr     1.78165139    0.02819609    1.71908394       7
Ni     1.77429387   -1.74545088   -0.02798063       8
Ni     1.79161535    1.79109511   -0.04411185       9
Ni     1.77577210    0.03232582   -1.82266689      10
Cr     0.00311055   -1.77552004    1.76081468      11
Co     0.01813044    1.81823076    1.75947810      12
Ni     0.00723701   -1.75174545   -1.81583609      13
Co     0.00256055    1.85816934   -1.82291264      14
Ni    -1.76866240    0.03562764    1.75066745      15
Co    -1.78347955   -1.74806261   -0.01840590      16
Ni    -1.77674730    1.80622918   -0.03058627      17
Ni    -1.78054970    0.02465289   -1.81030262      18
Co     0.00000000    0.00000000    0.00000000      19
          19
Lattice="  24.8920   0.0000   0.0000   0.0000  24.8920   0.0000   0.0000   0.0000  24.8920 " ConfE="      -5939.9823" DelE="          3.6853"
Co     3.14266783    0.07650684   -0.95289360       1
Co    -0.06956876    0.01155500    3.61701439       2
Ni     0.14378752    0.04287012   -3.46049468       3
Cr    -0.03846994   -3.61851938   -0.05087722       4
Co    -0.00298129    3.72217986    0.00012345       5
Cr    -3.55956331   -0.00444855   -0.01609197       6
Cr     3.08657197   -0.07365025    1.18789700       7
Ni     1.78170880   -1.87259766   -0.02288658       8
Ni     1.84189625    1.93823276    0.05199329       9
Ni     0.67369350    0.11934837   -0.92813200      10
Cr    -0.12185094   -1.98370160    1.75134425      11
Co    -0.02884919    2.02303117    1.78679512      12
Ni    -0.01027360   -1.91683810   -1.83508699      13
Co    -0.06706856    2.11570651   -1.89623749      14
Ni    -1.67780707    0.04333739    1.68744641      15
Co    -1.72539137   -1.75996090   -0.01928235      16
Ni    -1.72395155    1.81881543   -0.02691776      17
Ni    -1.73412790    0.02607248   -1.78328800      18
Co     0.91053518   -0.05531093    1.47291481      19
          19
Lattice="  24.8920   0.0000   0.0000   0.0000  24.8920   0.0000   0.0000   0.0000  24.8920 " ConfE="      -5943.6167" DelE="          0.0508"
Co     1.81757034    0.04881607   -1.80231929       1
Co    -0.01535251    0.03067178    3.55209970       2
Ni     0.05080969    0.03687989   -3.56252143       3
Cr    -0.03569045   -3.51346364   -0.04376124       4
Co     0.00129154    3.60570075   -0.01130339       5
Cr    -3.57933523   -0.01235022   -0.01970752       6
Cr     3.54182978    0.00088337    0.00002139       7
Ni     1.76553325   -1.74922373   -0.01121533       8
Ni     1.79623456    1.79630981   -0.03297343       9
Ni     0.01940002    0.02643766   -0.02998097      10
Cr     0.00148936   -1.79005583    1.77452450      11
Co     0.01422143    1.82849501    1.77089851      12
Ni     0.02006232   -1.74252876   -1.81691412      13
Co     0.01225422    1.85942882   -1.83184610      14
Ni    -1.76887034    0.03298657    1.74454262      15
Co    -1.78364129   -1.74673975   -0.02349823      16
Ni    -1.78146726    1.80862278   -0.02755625      17
Ni    -1.78047949    0.02311316   -1.81111580      18
Co     1.77269127    0.03220039    1.77931558      19
