          18
Lattice="  24.8920   0.0000   0.0000   0.0000  24.8920   0.0000   0.0000   0.0000  24.8920 " ConfE="      -5944.6058" DelE="          0.0000"
Ni     0.04361125   -3.46119865    0.03136473       1
Ni    -3.39837751    0.04024842    0.02699905       2
Ni     0.09992798    0.07503527   -3.52115412       3
Ni     3.61601662    0.07915531    0.07080111       4
Co     0.06383906    3.62063164    0.02383816       5
Co     0.05578198    0.06598392    3.60049491       6
Ni     0.07181965   -1.73498929   -1.75765057       7
Ni    -1.69312597    1.85731304    0.01001913       8
Co     0.02123718   -1.71469283    1.82792737       9
Co    -1.70343798    0.09905849    1.85485826      10
Ni     0.08202610    1.83490545    1.79547373      11
Cr    -1.68586357    0.08350691   -1.79840504      12
Ni     1.83019492    1.81355510    0.01364798      13
Ni     1.83480044    0.05304067   -1.74433977      14
Co     1.84934273   -1.72725466    0.08425049      15
Cr     1.71735327   -0.00820056    1.78417169      16
Co     0.04677754    1.86436863   -1.78392006      17
Ni     0.00000000    0.00000000    0.00000000      18
          18
Lattice="  24.8920   0.0000   0.0000   0.0000  24.8920   0.0000   0.0000   0.0000  24.8920 " ConfE="      -5944.2053" DelE="          0.4005"
Ni     0.02555851   -3.40580102    0.03236026       1
Ni    -3.35654941    0.03047792    0.02253668       2
Ni     0.11551774    0.07765369   -3.56988716       3
Ni     3.61208916    0.07463632    0.06552088       4
Co     0.06493546    3.62822590    0.01729193       5
Co     0.06300413    0.07262065    3.63943398       6
Ni     0.12811770   -1.78083309   -1.89567547       7
Ni    -1.64532183    1.79670555    0.01353972       8
Co     0.05222800   -1.76150955    1.97351957       9
Co    -1.72639495    0.16658068    1.99610680      10
Ni     0.08787683    1.83703313    1.80164809      11
Cr    -1.67901550    0.14524113   -1.92387923      12
Ni     1.79698349    1.77962958    0.00543926      13
Ni     1.81832682    0.05286426   -1.75737316      14
Co     1.79747422   -1.68255212    0.06885764      15
Cr     1.59383371   -0.05304886    1.68191817      16
Co     0.04297441    1.83640166   -1.78762070      17
Ni    -0.74178003   -0.71266736    0.01825301      18
          18
Lattice="  24.8920   0.0000   0.0000   0.0000  24.8920   0.0000   0.0000   0.0000  24.8920 " ConfE="      -5944.6766" DelE="         -0.0708"
Ni     0.07446040   -3.48994120    0.03654438       1
Ni    -3.46043818    0.08162870    0.03915591       2
Ni     0.10606418    0.07532947   -3.52530658       3
Ni     3.63598661    0.08157913    0.06905477       4
Co     0.06364939    3.63414265    0.02797015       5
Co     0.05770938    0.07604689    3.62240444       6
Ni     0.08959582   -1.69606053   -1.72657408       7
Ni    -1.66546819    1.81302830    0.02570355       8
Co     0.06502955   -1.67206608    1.82659621       9
Co    -1.68827785    0.11195818    1.84484614      10
Ni     0.09218590    1.81730966    1.78629539      11
Cr    -1.61879965    0.12618228   -1.73839896      12
Ni     1.81689379    1.79839740    0.01804231      13
Ni     1.81758511    0.05841276   -1.71648623      14
Co     1.81585691   -1.68798008    0.09539499      15
Cr     1.67675820   -0.02024099    1.71325943      16
Co     0.04194789    1.83945132   -1.76255880      17
Ni    -1.65776300   -1.64511377    0.03899990      18
