          18
Lattice="  24.8920   0.0000   0.0000   0.0000  24.8920   0.0000   0.0000   0.0000  24.8920 " ConfE="      -5937.5187" DelE="          0.0000"
Cr     0.09508656    0.03360951   -3.36502169       1
Co     0.00008217    3.47156215    0.02570258       2
Ni     3.52830009   -0.04343056    0.07909328       3
Ni    -3.54788723   -0.05050906    0.04802685       4
Co     0.02108446   -0.08057638    3.60348080       5
Co     0.00046444   -3.62051100    0.12951554       6
Co     1.74818408    1.74402305    0.02375651       7
Co     1.75021989   -0.03343832   -1.72638923       8
Co    -1.79609357   -0.02760379   -1.73381332       9
Co    -1.78817065    1.74807127    0.04702533      10
Ni     1.77071053   -1.79688024    0.11454315      11
Ni    -1.77956830   -1.83490631    0.05117753      12
Ni    -1.76433749   -0.03604570    1.82063955      13
Ni     0.00972171   -1.84860689   -1.69744716      14
Cr     1.71961116    0.02472744    1.86518487      15
Co     0.00281571    1.72026361    1.82922270      16
Cr    -0.05916737   -1.80916167    1.83827869      17
Ni     0.00000000    0.00000000    0.00000000      18
          18
Lattice="  24.8920   0.0000   0.0000   0.0000  24.8920   0.0000   0.0000   0.0000  24.8920 " ConfE="      -5937.0142" DelE="          0.5045"
Cr     0.09200998    0.05721703   -3.27505242       1
Co    -0.01395909    3.43885391    0.01309369       2
Ni     3.60942260   -0.06440662    0.11589758       3
Ni    -3.60458620   -0.06719920    0.08126713       4
Co     0.02340909   -0.06769606    3.59495055       5
Co    -0.00224081   -3.62931627    0.12923250       6
Co     1.90012172    1.78872734    0.04923997       7
Co     1.95724843   -0.10519982   -1.70934633       8
Co    -1.98636595   -0.07530745   -1.75537112       9
Co    -1.96253882    1.78902277    0.08133640      10
Ni     1.79159839   -1.80288271    0.11447584      11
Ni    -1.78546997   -1.82446547    0.05580631      12
Ni    -1.76974061   -0.02705518    1.79326410      13
Ni     0.01578899   -1.79071396   -1.65423629      14
Cr     1.54803165    0.09263904    1.61889231      15
Co    -0.03179170    1.72047240    1.76713028      16
Cr    -0.04530215   -1.72918552    1.77302527      17
Ni    -0.01209891    0.62556963   -0.64146407      18
          18
Lattice="  24.8920   0.0000   0.0000   0.0000  24.8920   0.0000   0.0000   0.0000  24.8920 " ConfE="      -5937.7392" DelE="         -0.2205"
Cr     0.08548052   -0.05893642   -3.45234472       1
Co    -0.00050382    3.52240883    0.06383310       2
Ni     3.54948383   -0.05427595    0.10561580       3
Ni    -3.55515137   -0.05749539    0.05690610       4
Co     0.01662698   -0.07644129    3.63143741       5
Co    -0.00070406   -3.63756766    0.13071330       6
Co     1.74056929    1.70492946    0.07286146       7
Co     1.76010884   -0.05899993   -1.67349443       8
Co    -1.79727262   -0.04802998   -1.71444182       9
Co    -1.78545197    1.72204747    0.06975083      10
Ni     1.73455299   -1.77021721    0.13169843      11
Ni    -1.74997551   -1.81532462    0.05758841      12
Ni    -1.74158359   -0.04395193    1.80824945      13
Ni     0.00557264   -1.80335589   -1.67002540      14
Cr     1.64395173    0.03684581    1.82518408      15
Co     0.00328900    1.67285784    1.78049608      16
Cr    -0.04639888   -1.77596991    1.82574736      17
Ni     0.00328498    1.68228876   -1.67657505      18
