          18
Lattice="  24.8920   0.0000   0.0000   0.0000  24.8920   0.0000   0.0000   0.0000  24.8920 " ConfE="      -5932.1479" DelE="          0.0000"
Cr    -0.05963381   -3.52158795    0.00940563       1
Co    -0.02556501    0.00858677   -3.52861858       2
Ni    -0.04179026    3.60489488    0.00471426       3
Ni    -0.05687875    0.02320390    3.55540320       4
Ni     3.50223714    0.01559990   -0.02622942       5
Co    -3.59728878    0.02346984   -0.01729911       6
Cr     1.67793052   -1.74278583    0.00966084       7
Ni    -1.77579311   -1.75442196   -0.00522786       8
Cr     1.57653582   -0.08376041   -1.80282361       9
Cr    -1.65627516   -0.07290043   -1.77166729      10
Co    -0.04030197   -1.74652441    1.79427472      11
Ni    -0.03004170    1.82113033   -1.76364206      12
Cr    -0.09963469    1.84484894    1.80781222      13
Cr     1.75324518    0.02588154    1.79367654      14
Co    -1.81129923    0.03120487    1.75350872      15
Cr     1.73540389    1.78058494    0.04271316      16
Cr    -1.81741923    1.75121357    0.01680646      17
Co     0.00000000    0.00000000    0.00000000      18
          18
Lattice="  24.8920   0.0000   0.0000   0.0000  24.8920   0.0000   0.0000   0.0000  24.8920 " ConfE="      -5931.5105" DelE="          0.6374"
Cr    -0.07442500   -3.44579863   -0.03265224       1
Co    -0.04284481   -0.00749284   -3.52627971       2
Ni    -0.03170678    3.58615924   -0.00693544       3
Ni    -0.06153352    0.00608255    3.58440878       4
Ni     3.54414051    0.06583698    0.02141666       5
Co    -3.64867052    0.05572362   -0.00213554       6
Cr     1.83295567   -1.70801766    0.15405740       7
Ni    -1.87917194   -1.73242088    0.02633541       8
Cr     1.90158952    0.21854050   -1.91952211       9
Cr    -1.90236120    0.00676999   -1.78341175      10
Co    -0.01757453   -1.67245354    1.70089751      11
Ni    -0.06069028    1.73223177   -1.77707593      12
Cr    -0.11436665    1.85151456    1.89786217      13
Cr     1.75030501   -0.00009642    1.84657258      14
Co    -1.79297793    0.02561835    1.74622935      15
Cr     1.50041141    1.54201660    0.11041959      16
Cr    -1.61983803    1.58185887    0.08663869      17
Co     0.13174114   -0.98628395   -1.07797148      18
          18
Lattice="  24.8920   0.0000   0.0000   0.0000  24.8920   0.0000   0.0000   0.0000  24.8920 " ConfE="      -5931.9664" DelE="          0.1815"
Cr    -0.02561009   -3.52540774    0.00062623       1
Co    -0.03030519    0.03511737   -3.58539540       2
Ni    -0.03442095    3.59795871    0.00698472       3
Ni    -0.05326805    0.00830176    3.59231764       4
Ni     3.53169180    0.05483658    0.01082277       5
Co    -3.61599798    0.04603449   -0.00465357       6
Cr     1.64284189   -1.59403502    0.01022066       7
Ni    -1.78047722   -1.71605766    0.01726309       8
Cr     1.71196592    0.11696728   -1.82099624       9
Cr    -1.76186700    0.00568830   -1.75329725      10
Co    -0.00542143   -1.68885032    1.74055432      11
Ni    -0.05698768    1.77367404   -1.77126568      12
Cr    -0.10909728    1.86463600    1.91408782      13
Cr     1.76357826   -0.02072182    1.84439683      14
Co    -1.77610042    0.03247106    1.75135620      15
Cr     1.51585649    1.58020512    0.13953607      16
Cr    -1.62806309    1.62138518    0.10698481      17
Co    -0.01817947   -1.70245417   -1.74211132      18
