          18
Lattice="  24.8920   0.0000   0.0000   0.0000  24.8920   0.0000   0.0000   0.0000  24.8920 " ConfE="      -5934.2254" DelE="          0.0000"
Co    -3.51348032   -0.06548324    0.05069206       1
Cr    -0.05783159   -3.46834479    0.00381485       2
Cr     3.55926291    0.02962441    0.05210943       3
Cr     0.08880769    3.56727594   -0.02158940       4
Cr     0.07250945   -0.12223722   -3.46509148       5
Co    -0.01632050    0.03152847    3.57350965       6
Ni    -1.75608564   -0.01056834   -1.72191313       7
Co    -1.80312477   -0.04219254    1.79598738       8
Co     0.03606532   -1.79354252   -1.72637963       9
Ni    -0.03925722   -1.75900631    1.73744627      10
Ni    -1.75056601    1.83151284    0.01443535      11
Co     1.86545750   -1.80483258    0.01770198      12
Co     1.82373932    1.81725423    0.03645790      13
Ni     0.03408302    1.79320771   -1.76776289      14
Ni     0.01924484    1.80502570    1.78109288      15
Ni     1.81167740    0.00943718   -1.73806023      16
Ni     1.76161721    0.02121071    1.77737598      17
Ni     0.00000000    0.00000000    0.00000000      18
          18
Lattice="  24.8920   0.0000   0.0000   0.0000  24.8920   0.0000   0.0000   0.0000  24.8920 " ConfE="      -5933.6529" DelE="          0.5725"
Co    -3.48795614   -0.08213509    0.04228091       1
Cr    -0.09530612   -3.37987470    0.02264978       2
Cr     3.56592857    0.00632993    0.05175644       3
Cr     0.05980841    3.56257410   -0.02531034       4
Cr     0.08189632   -0.09506129   -3.52926279       5
Co    -0.00311693    0.03920067    3.62799253       6
Ni    -1.77844052    0.01561847   -1.85722953       7
Co    -1.84652257   -0.04351518    1.93734112       8
Co     0.08736857   -1.82121074   -1.92784559       9
Ni    -0.00055287   -1.81564853    1.94969685      10
Ni    -1.72508137    1.72457637    0.01327017      11
Co     1.79507823   -1.80904230    0.01524223      12
Co     1.79510101    1.77767205    0.04147694      13
Ni     0.02945521    1.74454698   -1.75273307      14
Ni    -0.00068331    1.74732953    1.76876045      15
Ni     1.78243549   -0.00680933   -1.72162389      16
Ni     1.71213569   -0.01346006    1.75065210      17
Ni    -0.56350351   -0.65205977    0.02444458      18
          18
Lattice="  24.8920   0.0000   0.0000   0.0000  24.8920   0.0000   0.0000   0.0000  24.8920 " ConfE="      -5934.5982" DelE="         -0.3728"
Co    -3.55337225   -0.00612452    0.04584905       1
Cr     0.04356928   -3.55859270    0.02529240       2
Cr     3.57571031    0.03166160    0.04785956       3
Cr     0.08266444    3.58610892   -0.01652464       4
Cr     0.09288386   -0.09641666   -3.50344389       5
Co    -0.00586634    0.04317854    3.59615276       6
Ni    -1.69796912    0.02301391   -1.72337135       7
Co    -1.78481035   -0.01423297    1.81062039       8
Co     0.07224944   -1.75919871   -1.74274220       9
Ni     0.00796830   -1.73035926    1.74566665      10
Ni    -1.71964766    1.79946783    0.02301161      11
Co     1.83286120   -1.79829307    0.01255733      12
Co     1.81682144    1.81388622    0.04109450      13
Ni     0.04996340    1.78519459   -1.73756537      14
Ni     0.02302801    1.78915511    1.76545564      15
Ni     1.78650639    0.02042715   -1.70825597      16
Ni     1.73929036    0.02449147    1.73890475      17
Ni    -1.71260283   -1.73769081    0.00674942      18
