          18
Lattice="  24.8920   0.0000   0.0000   0.0000  24.8920   0.0000   0.0000   0.0000  24.8920 " ConfE="      -5937.8685" DelE="          0.0000"
Ni    -3.50620273    0.01871890   -0.03863199       1
Ni     0.00430418    0.01982219   -3.52074774       2
Cr     3.59802996   -0.03253009    0.10273146       3
Ni     0.03533617    0.01452645    3.58393084       4
Co     0.02087939   -3.47131679   -0.00496644       5
Co    -0.06436736    3.55244630    0.00707194       6
Co    -1.77710366   -1.73470619   -0.10078086       7
Cr    -1.78898507    1.77414357   -0.00553856       8
Cr    -0.02259372   -1.77423165   -1.71887644       9
Ni    -0.01242234    1.74283646   -1.75330345      10
Co    -1.79986502    0.05752207    1.74812145      11
Ni     1.82989911   -0.00165172   -1.75060349      12
Ni     1.80230265    0.01711043    1.81604532      13
Ni     0.01635011   -1.71617268    1.78607814      14
Ni     0.00505566    1.79065816    1.79167072      15
Co     1.84383484   -1.76610585   -0.01312648      16
Ni     1.79903569    1.78472515    0.03748510      17
Ni     0.00000000    0.00000000    0.00000000      18
          18
Lattice="  24.8920   0.0000   0.0000   0.0000  24.8920   0.0000   0.0000   0.0000  24.8920 " ConfE="      -5937.3593" DelE="          0.5092"
Ni    -3.44210558    0.01148731   -0.06712899       1
Ni     0.01030806    0.02245329   -3.51210724       2
Cr     3.60325048   -0.02857888    0.10649410       3
Ni     0.03173831    0.01090051    3.57458372       4
Co     0.02476822   -3.49906703    0.00187110       5
Co    -0.05042989    3.58842466    0.01534474       6
Co    -1.89838575   -1.96394972   -0.04616428       7
Cr    -1.80430757    1.94073699    0.02302732       8
Cr     0.07287388   -1.90600957   -1.76337933       9
Ni     0.04185410    1.86300254   -1.79341708      10
Co    -1.78728650    0.04673204    1.71961948      11
Ni     1.77268043    0.00535880   -1.71275270      12
Ni     1.77253123    0.02256599    1.77316695      13
Ni    -0.01362608   -1.68020768    1.70997139      14
Ni    -0.00625613    1.78800778    1.76933008      15
Co     1.82199560   -1.76051609   -0.01673474      16
Ni     1.78607781    1.79246721    0.03416092      17
Ni    -0.71720502   -0.04031517   -0.60099673      18
          18
Lattice="  24.8920   0.0000   0.0000   0.0000  24.8920   0.0000   0.0000   0.0000  24.8920 " ConfE="      -5938.0428" DelE="         -0.1743"
Ni    -3.56429358    0.00553699   -0.00206840       1
Ni     0.02469050    0.02115661   -3.54624420       2
Cr     3.61793829   -0.02830981    0.10984253       3
Ni     0.04086400    0.01419686    3.58473257       4
Co     0.02359906   -3.50883521    0.01503322       5
Co    -0.05990853    3.57962211    0.01753291       6
Co    -1.75121748   -1.76170088   -0.04144307       7
Cr    -1.75993159    1.74110988    0.05894225       8
Cr     0.05601654   -1.77483972   -1.66741307       9
Ni     0.01050052    1.73276139   -1.70488953      10
Co    -1.76467113    0.08507817    1.66646367      11
Ni     1.80245994   -0.00205706   -1.72666981      12
Ni     1.79286930    0.01698086    1.79284684      13
Ni     0.01246453   -1.67915680    1.74285599      14
Ni     0.01650310    1.77605179    1.76759597      15
Co     1.80544141   -1.75113012   -0.01471709      16
Ni     1.78735003    1.76026149    0.03924133      17
Ni    -1.74186588   -0.01192991   -1.73611187      18
