          18
Lattice="  24.8920   0.0000   0.0000   0.0000  24.8920   0.0000   0.0000   0.0000  24.8920 " ConfE="      -5925.6466" DelE="          0.0000"
Ni     0.00859141    0.05258408    3.41996936       1
Ni    -3.52590751   -0.04566026   -0.07073348       2
Ni     0.04426343   -0.09802648   -3.65038293       3
Co     0.04020690    3.43914957   -0.06709972       4
Co     3.57392315   -0.09474967   -0.08610034       5
Co     0.00309784   -3.61209031   -0.09355769       6
Co     1.80186090   -0.01797014    1.67846708       7
Co     1.82749906    1.69828025   -0.07279636       8
Co    -1.78283577   -0.02433403    1.70641892       9
Ni     0.02796000    1.68304040   -1.86436334      10
Co    -1.74320728    1.75085140   -0.06975033      11
Co    -0.00072633   -1.85432493    1.69936096      12
Co     1.81139953   -1.85810486   -0.03859651      13
Cr     1.75636477   -0.16065597   -1.72524341      14
Co    -1.77009595   -1.83720640   -0.08001041      15
Co     0.05320059   -1.83659961   -1.82989224      16
Co    -1.74269418   -0.07181712   -1.85695041      17
Ni     0.00000000    0.00000000    0.00000000      18
          18
Lattice="  24.8920   0.0000   0.0000   0.0000  24.8920   0.0000   0.0000   0.0000  24.8920 " ConfE="      -5925.1371" DelE="          0.5094"
Ni     0.01354558    0.01584909    3.41065185       1
Ni    -3.59121772   -0.06520353   -0.08449611       2
Ni     0.03659559   -0.09753698   -3.63370096       3
Co     0.04839191    3.41553572   -0.05158220       4
Co     3.64584684   -0.12630313   -0.09098363       5
Co     0.00921646   -3.62471976   -0.08591356       6
Co     1.97525352   -0.11513255    1.70023029       7
Co     1.98355508    1.71551735   -0.11323426       8
Co    -1.93222920   -0.09461334    1.73116146       9
Ni     0.04624065    1.61146321   -1.75739263      10
Co    -1.87707538    1.74785236   -0.13591610      11
Co     0.01292832   -1.78765270    1.66301747      12
Co     1.81192326   -1.84616495   -0.02621743      13
Cr     1.69345811   -0.17691556   -1.61320475      14
Co    -1.74667878   -1.79352156   -0.07162404      15
Co     0.05321807   -1.80604424   -1.79057082      16
Co    -1.74524887   -0.07095322   -1.82206350      17
Ni     0.04351756    0.98622868    1.00678362      18
          18
Lattice="  24.8920   0.0000   0.0000   0.0000  24.8920   0.0000   0.0000   0.0000  24.8920 " ConfE="      -5925.5481" DelE="          0.0985"
Ni     0.01100557   -0.02961780    3.48850362       1
Ni    -3.54290354   -0.05553078   -0.07014072       2
Ni     0.04313637   -0.10319606   -3.66084158       3
Co     0.04222155    3.47092089   -0.08749701       4
Co     3.60921490   -0.10664087   -0.08169299       5
Co     0.01311783   -3.63458296   -0.09947406       6
Co     1.79466460   -0.07223813    1.65387037       7
Co     1.81899480    1.64127200   -0.08958440       8
Co    -1.75689406   -0.06493734    1.66458431       9
Ni     0.04288924    1.62166266   -1.80314084      10
Co    -1.74355253    1.71343335   -0.09549529      11
Co     0.00107635   -1.82221139    1.66508598      12
Co     1.80105474   -1.84751214   -0.04292113      13
Cr     1.69395781   -0.18229907   -1.65231860      14
Co    -1.74119949   -1.81314261   -0.09092824      15
Co     0.05550301   -1.82032763   -1.81472039      16
Co    -1.72694727   -0.08172428   -1.83498632      17
Ni     0.02774490    1.63306496    1.66219854      18
