          18
Lattice="  24.8920   0.0000   0.0000   0.0000  24.8920   0.0000   0.0000   0.0000  24.8920 " ConfE="      -5949.4729" DelE="          0.0000"
Co    -3.57264692    0.05716548   -0.04886547       1
Ni    -0.02248294    0.06100332    3.46421272       2
Ni     3.55309398    0.05277333   -0.08014844       3
Co     0.02621523    0.09170996   -3.58308917       4
Co    -0.01283932   -3.46518466   -0.00622165       5
Co     0.01014132    3.58894273   -0.04121709       6
Ni    -1.77620537   -1.69291283   -0.02922457       7
Ni    -1.77862088    1.75914379   -0.03808537       8
Cr    -0.08825539   -1.64091358    1.76501952       9
Ni    -0.03921590    1.77463174    1.71178490      10
Ni    -1.75389226    0.05690413   -1.85226768      11
Ni     1.79818230    0.04584431    1.72025857      12
Cr     1.75195715   -0.00743018   -1.88871156      13
Ni    -0.00370326   -1.72131991   -1.83035513      14
Cr     0.01195913    1.82133350   -1.82120916      15
Co     1.72111331   -1.66768002   -0.05526971      16
Ni     1.76896586    1.80459950   -0.08585716      17
Cr     0.00000000    0.00000000    0.00000000      18
          18
Lattice="  24.8920   0.0000   0.0000   0.0000  24.8920   0.0000   0.0000   0.0000  24.8920 " ConfE="      -5948.7146" DelE="          0.7583"
Co    -3.49845597    0.04863987   -0.02230779       1
Ni    -0.04382810    0.05884076    3.40669420       2
Ni     3.54133703    0.06264063   -0.06814910       3
Co     0.01549941    0.08823785   -3.59371073       4
Co     0.01158823   -3.52274035   -0.01699124       5
Co     0.01611001    3.66871503   -0.05094876       6
Ni    -1.82313176   -1.89810604   -0.11429601       7
Ni    -1.79770617    1.91451111   -0.07574754       8
Cr    -0.02089216   -1.80513753    1.75161981       9
Ni    -0.01904467    1.92270844    1.73365908      10
Ni    -1.72588082    0.04706075   -1.77577928      11
Ni     1.70099497    0.05398960    1.67619661      12
Cr     1.67912174   -0.00236690   -1.81775304      13
Ni    -0.00799135   -1.70907085   -1.80377654      14
Cr     0.00639208    1.75855409   -1.75108068      15
Co     1.66990600   -1.63734377   -0.05832692      16
Ni     1.72554362    1.80608314   -0.07194148      17
Cr    -0.88697594   -0.01094829    0.81133154      18
          18
Lattice="  24.8920   0.0000   0.0000   0.0000  24.8920   0.0000   0.0000   0.0000  24.8920 " ConfE="      -5949.7849" DelE="         -0.3120"
Co    -3.58282067    0.06314501   -0.06866047       1
Ni    -0.00565989    0.06345657    3.50054054       2
Ni     3.56662572    0.05494509   -0.08070699       3
Co     0.02854865    0.08993043   -3.61988889       4
Co    -0.00593008   -3.49448739   -0.01202864       5
Co     0.01858534    3.61513892   -0.04921968       6
Ni    -1.74341994   -1.70088535   -0.05858677       7
Ni    -1.75129582    1.77578050   -0.06930606       8
Cr    -0.03797084   -1.63665470    1.70988242       9
Ni    -0.01949808    1.77016832    1.68371302      10
Ni    -1.71474949    0.06165918   -1.82280906      11
Ni     1.74692857    0.04340619    1.68778699      12
Cr     1.71672070   -0.00957006   -1.85998954      13
Ni     0.00903020   -1.69958230   -1.82018525      14
Cr     0.03400348    1.79166558   -1.82603925      15
Co     1.69985343   -1.63405437   -0.07292878      16
Ni     1.74952236    1.78453719   -0.10254245      17
Cr    -1.78507351    0.02012177    1.68352162      18
