          18
Lattice="  24.8920   0.0000   0.0000   0.0000  24.8920   0.0000   0.0000   0.0000  24.8920 " ConfE="      -5940.1928" DelE="          0.0000"
Ni    -0.04100381   -0.00050880    3.52390972       1
Ni    -0.06247664    3.57622455   -0.02145781       2
Co     3.47938614    0.00858363   -0.01849801       3
Co    -0.04761161   -3.55219564   -0.04973204       4
Cr    -3.63215819   -0.04633435   -0.05637146       5
Cr    -0.03955157    0.00177272   -3.54021384       6
Ni     0.00469948   -1.75092838    1.74508192       7
Ni    -0.02302579    1.77103604    1.73654195       8
Co     1.75075371   -1.78805203   -0.02000796       9
Co     1.73603056    1.79966919   -0.05237879      10
Co    -1.87081991   -0.01889836    1.71912641      11
Cr    -1.78260225   -1.81663007   -0.04363925      12
Co    -0.02958031   -1.78389660   -1.81275263      13
Co    -1.80977739   -0.00195888   -1.81178641      14
Cr     1.77903334   -0.01085439   -1.76474285      15
Cr    -1.84470503    1.75678178   -0.04848585      16
Cr    -0.04378306    1.78146236   -1.77479773      17
Ni     0.00000000    0.00000000    0.00000000      18
          18
Lattice="  24.8920   0.0000   0.0000   0.0000  24.8920   0.0000   0.0000   0.0000  24.8920 " ConfE="      -5939.3263" DelE="          0.8665"
Ni    -0.03770378    0.00425502    3.48422297       1
Ni    -0.09909130    3.63716254   -0.03397170       2
Co     3.50006120    0.00109543   -0.04703394       3
Co    -0.07985877   -3.60541190   -0.06191055       4
Cr    -3.65223069   -0.05229753   -0.06240071       5
Cr    -0.02885992    0.00520347   -3.55344463       6
Ni    -0.07457064   -1.84287154    1.73643363       7
Ni    -0.08775226    1.86686957    1.72996310       8
Co     1.74335956   -1.95546940   -0.09985306       9
Co     1.75081708    1.97680357   -0.13413623      10
Co    -1.82566199   -0.01934114    1.67449859      11
Cr    -1.75432977   -1.75334971   -0.04990649      12
Co    -0.04160057   -1.74405855   -1.76608856      13
Co    -1.77825216    0.00507574   -1.78873604      14
Cr     1.72484402   -0.02881299   -1.64110660      15
Cr    -1.80132903    1.69023260   -0.03111951      16
Cr    -0.03487986    1.70481064   -1.69882630      17
Ni     1.23935458    0.01506818    1.07086848      18
          18
Lattice="  24.8920   0.0000   0.0000   0.0000  24.8920   0.0000   0.0000   0.0000  24.8920 " ConfE="      -5939.7353" DelE="          0.4575"
Ni    -0.06275996    0.00013504    3.54231870       1
Ni    -0.07568208    3.58088026   -0.02472974       2
Co     3.55061114    0.01050694   -0.04726734       3
Co    -0.05913687   -3.56937320   -0.05765093       4
Cr    -3.67199776   -0.04990607   -0.06160117       5
Cr    -0.04492353   -0.00291502   -3.56524045       6
Ni    -0.04378108   -1.74540773    1.70341070       7
Ni    -0.05933195    1.75792805    1.70333662       8
Co     1.72213794   -1.77633700   -0.05681154       9
Co     1.69944608    1.77234356   -0.07658066      10
Co    -1.83494078   -0.01473823    1.67109840      11
Cr    -1.78670628   -1.76029228   -0.05902038      12
Co    -0.04471922   -1.74644425   -1.78280280      13
Co    -1.78413194    0.00535415   -1.78433301      14
Cr     1.71954617   -0.02203949   -1.69343721      15
Cr    -1.83545078    1.69793389   -0.04793501      16
Cr    -0.05308597    1.71993333   -1.73631810      17
Ni     1.70590901   -0.00256479    1.68934835      18
