          18
Lattice="  24.8920   0.0000   0.0000   0.0000  24.8920   0.0000   0.0000   0.0000  24.8920 " ConfE="      -5944.6766" DelE="          0.0000"
Ni     0.02361862   -0.04808978   -3.55605712       1
Co    -0.02344695    0.02424892    3.55377986       2
Ni    -3.51976958    0.01914119   -0.01648858       3
Ni     3.55042992   -0.00012327   -0.01974866       4
Co    -0.04741592    3.53590408   -0.03578447       5
Co     0.00833106   -3.56950514    0.01675554       6
Ni    -1.74650940    0.05232877    1.76663611       7
Ni     1.72760378    1.75464984    0.01033365       8
Ni    -0.01523949   -1.79372575    1.76341047       9
Ni    -1.74125675    0.00081985   -1.77163091      10
Co     1.72630018    0.00819718    1.82185215      11
Ni     0.01625396    1.77210973   -1.79853969      12
Cr    -1.70801889    1.82287052   -0.01146817      13
Co     1.76926755   -1.80064732    0.02936015      14
Cr     0.05980804   -1.86749491   -1.76673251      15
Co    -1.75356875   -1.76750776   -0.01572599      16
Co     1.74184693   -0.07264783   -1.77303674      17
Ni     0.00000000    0.00000000    0.00000000      18
          18
Lattice="  24.8920   0.0000   0.0000   0.0000  24.8920   0.0000   0.0000   0.0000  24.8920 " ConfE="      -5943.9483" DelE="          0.7283"
Ni     0.02282525   -0.04404678   -3.54038369       1
Co    -0.05870480    0.01538353    3.52732981       2
Ni    -3.57797858    0.00011904   -0.03341008       3
Ni     3.60428697   -0.00855789   -0.03602484       4
Co    -0.03457604    3.55880273   -0.02795532       5
Co     0.00408674   -3.58745755    0.02771304       6
Ni    -1.94288084   -0.04990141    1.79320052       7
Ni     1.86340604    1.79647751   -0.05086730       8
Ni    -0.02065215   -1.70422163    1.71588444       9
Ni    -1.72842073    0.00282175   -1.73939414      10
Co     1.87339558   -0.07483688    1.82585264      11
Ni     0.00707845    1.74964115   -1.71069641      12
Cr    -1.87864154    1.84069185   -0.08958716      13
Co     1.76213725   -1.80717746    0.04636169      14
Cr     0.04532992   -1.81287847   -1.67792938      15
Co    -1.71663603   -1.72957662   -0.03771237      16
Co     1.62334159   -0.12386518   -1.64573270      17
Ni    -0.04775996    0.94422027    0.97173331      18
          18
Lattice="  24.8920   0.0000   0.0000   0.0000  24.8920   0.0000   0.0000   0.0000  24.8920 " ConfE="      -5944.5645" DelE="          0.1120"
Ni     0.02471058   -0.04872677   -3.56908074       1
Co    -0.02792436   -0.01122484    3.58750002       2
Ni    -3.54488402    0.00277500   -0.02615761       3
Ni     3.56518587   -0.00736766   -0.02723270       4
Co    -0.03871448    3.58988331   -0.05334792       5
Co     0.00410427   -3.60117220    0.01977670       6
Ni    -1.78117027   -0.00578079    1.73927826       7
Ni     1.73193727    1.72595910   -0.01063142       8
Ni    -0.01666863   -1.76439135    1.73439520       9
Ni    -1.69636089   -0.01656711   -1.74012865      10
Co     1.73932974   -0.03377140    1.80222332      11
Ni     0.00595556    1.75503402   -1.75262490      12
Cr    -1.76328562    1.78429683   -0.06740465      13
Co     1.72709738   -1.79322852    0.01804514      14
Cr     0.08770261   -1.84591909   -1.72996257      15
Co    -1.70775109   -1.74288017   -0.03729916      16
Co     1.64447923   -0.11786018   -1.69860884      17
Ni    -0.03844589    1.71134278    1.69630975      18
