          18
Lattice="  24.8920   0.0000   0.0000   0.0000  24.8920   0.0000   0.0000   0.0000  24.8920 " ConfE="      -5946.8965" DelE="          0.0000"
Ni     0.04583818   -0.02873115    3.50847605       1
Co     3.50176899   -0.03019908   -0.03457419       2
Co    -0.02790061   -0.04241221   -3.63495954       3
Cr    -3.61197281   -0.01155167   -0.01110437       4
Ni    -0.02198764    3.48648440   -0.02983164       5
Cr    -0.04543075   -3.58132366   -0.03332325       6
Cr     0.04076887    1.70529525    1.76847835       7
Co    -0.02599133   -1.79737666    1.76119741       8
Co     1.76906310    1.73683693   -0.00077748       9
Ni     1.74079931   -1.77635373    0.00969672      10
Cr    -1.81717711    0.07390865    1.77772492      11
Co     1.77584862   -0.03194553   -1.85268829      12
Ni    -1.78668719   -0.01584534   -1.82584776      13
Co    -1.80474465    1.75327265   -0.00983431      14
Ni    -1.80442920   -1.76513073   -0.02507668      15
Co    -0.04265746    1.75346054   -1.84154614      16
Ni    -0.01761810   -1.78923380   -1.81028887      17
Ni     0.00000000    0.00000000    0.00000000      18
          18
Lattice="  24.8920   0.0000   0.0000   0.0000  24.8920   0.0000   0.0000   0.0000  24.8920 " ConfE="      -5946.4575" DelE="          0.4390"
Ni     0.02022097   -0.03044338    3.45981537       1
Co     3.49267942   -0.01805489   -0.01874960       2
Co    -0.02168931   -0.04353248   -3.63712989       3
Cr    -3.63647317   -0.01396332   -0.01006205       4
Ni    -0.02796539    3.50895703   -0.04172684       5
Cr    -0.04650552   -3.62052959   -0.04529523       6
Cr    -0.05187731    1.92762037    1.85651053       7
Co    -0.06247065   -1.96831821    1.80800642       8
Co     1.81973803    1.85913802   -0.02981832       9
Ni     1.76456271   -1.85232556    0.00331414      10
Cr    -1.83407790    0.01866144    1.76165220      11
Co     1.75409506   -0.02208353   -1.79912061      12
Ni    -1.77118910   -0.02147819   -1.80684354      13
Co    -1.74647720    1.69465661    0.02135583      14
Ni    -1.76465742   -1.74602353   -0.01765169      15
Co    -0.03140768    1.72923321   -1.80718155      16
Ni    -0.00782224   -1.78148710   -1.78806684      17
Ni     0.45011598    0.04341958    0.61619146      18
          18
Lattice="  24.8920   0.0000   0.0000   0.0000  24.8920   0.0000   0.0000   0.0000  24.8920 " ConfE="      -5947.0169" DelE="         -0.1204"
Ni     0.00037675   -0.02424199    3.55804502       1
Co     3.53392789   -0.03722768   -0.06454219       2
Co    -0.02631339   -0.04109096   -3.64892609       3
Cr    -3.64599426   -0.01258008   -0.01344591       4
Ni    -0.03128773    3.50393436   -0.03765061       5
Cr    -0.05768604   -3.60893540   -0.04589053       6
Cr    -0.05744349    1.71006564    1.71618991       7
Co    -0.06817435   -1.80084066    1.73316098       8
Co     1.73181107    1.73614774   -0.03961370       9
Ni     1.71100740   -1.78027984   -0.02424058      10
Cr    -1.77660325    0.05057676    1.74339503      11
Co     1.76294509   -0.03017579   -1.82544365      12
Ni    -1.76982089   -0.01459041   -1.80735358      13
Co    -1.76532488    1.70199935   -0.00535323      14
Ni    -1.78627078   -1.73670335   -0.03379848      15
Co    -0.04247778    1.72752664   -1.81957677      16
Ni    -0.02220029   -1.76369782   -1.79308684      17
Ni     1.68952713   -0.02140847    1.71624124      18
