          18
Lattice="  24.8920   0.0000   0.0000   0.0000  24.8920   0.0000   0.0000   0.0000  24.8920 " ConfE="      -5946.5231" DelE="          0.0000"
Ni     0.06807780    0.01156203   -3.50656669       1
Cr    -3.49824344   -0.03260834    0.00444284       2
Co     0.09935158   -0.00706310    3.54219586       3
Co     3.68778067   -0.01037405    0.00178871       4
Cr     0.12665661   -3.52753884   -0.04486884       5
Cr     0.03012623    3.48972969    0.01749411       6
Ni     0.06673073   -1.75442843   -1.74882710       7
Ni     0.04764636    1.75988189   -1.75621240       8
Cr    -1.72871449   -1.66096384   -0.10475366       9
Cr    -1.72970762    1.60378180   -0.10593491      10
Co     1.87797807   -0.00564069   -1.73651725      11
Ni    -1.72788400   -0.04240952    1.82041023      12
Cr     1.85930567   -0.03464867    1.78981077      13
Cr     1.89319180   -1.73115480    0.04116086      14
Ni     1.84507372    1.72798751    0.02952349      15
Ni     0.06453308   -1.80314904    1.77900431      16
Cr     0.02194763    1.71222641    1.75988751      17
Co     0.00000000    0.00000000    0.00000000      18
          18
Lattice="  24.8920   0.0000   0.0000   0.0000  24.8920   0.0000   0.0000   0.0000  24.8920 " ConfE="      -5945.9076" DelE="          0.6155"
Ni     0.05234694    0.02444340   -3.48285410       1
Cr    -3.43594816   -0.02578411   -0.00743010       2
Co     0.09704047   -0.00344251    3.53452482       3
Co     3.66478932   -0.00665867   -0.00778268       4
Cr     0.11977769   -3.60942394   -0.03745961       5
Cr     0.07029097    3.61226602    0.01188499       6
Ni     0.08668583   -1.87417277   -1.78530772       7
Ni     0.09600069    1.89225140   -1.76529916       8
Cr    -1.70205107   -1.91341148   -0.00974637       9
Cr    -1.73464276    1.91451377    0.03363854      10
Co     1.77125246   -0.01994056   -1.67457744      11
Ni    -1.68313641   -0.03226268    1.73787710      12
Cr     1.80868041   -0.03262591    1.74551102      13
Cr     1.78830021   -1.70202656    0.01273449      14
Ni     1.80353327    1.73405351    0.02974451      15
Ni     0.05757575   -1.80327036    1.75688539      16
Cr     0.02783905    1.70508677    1.71890868      17
Co    -0.94618852    0.01253823   -0.80419659      18
          18
Lattice="  24.8920   0.0000   0.0000   0.0000  24.8920   0.0000   0.0000   0.0000  24.8920 " ConfE="      -5946.6190" DelE="         -0.0958"
Ni     0.07953128    0.00848084   -3.52855876       1
Cr    -3.52794265   -0.02676187    0.03316618       2
Co     0.10577769   -0.00720547    3.55331253       3
Co     3.69494917   -0.00808630   -0.00011287       4
Cr     0.13084607   -3.56617811   -0.03502671       5
Cr     0.04396175    3.54966754    0.01572613       6
Ni     0.08082164   -1.75847708   -1.70825224       7
Ni     0.06204647    1.76532358   -1.71962825       8
Cr    -1.70174800   -1.73971094   -0.02927225       9
Cr    -1.68512994    1.71281210    0.01968630      10
Co     1.84336679   -0.01279198   -1.70258016      11
Ni    -1.69055222   -0.03636972    1.76788577      12
Cr     1.85160705   -0.03560776    1.77574690      13
Cr     1.87531626   -1.70783006    0.04137086      14
Ni     1.81587189    1.70946170    0.04132277      15
Ni     0.08064771   -1.78129446    1.75240103      16
Cr     0.04383661    1.69338402    1.75457557      17
Co    -1.68219490   -0.00554560   -1.64624956      18
