          18
Lattice="  24.8920   0.0000   0.0000   0.0000  24.8920   0.0000   0.0000   0.0000  24.8920 " ConfE="      -5936.7293" DelE="          0.0000"
Ni    -3.56831665   -0.03263593   -0.01517712       1
Co     0.01193753    0.01438037   -3.51107482       2
Co    -0.00257413   -3.52221067   -0.04742447       3
Ni     3.56020889   -0.04357398    0.01964402       4
Co    -0.02108753    0.00548368    3.53130000       5
Co     0.01321009    3.52371727   -0.00307200       6
Ni    -1.74308378   -1.77556329   -0.04686542       7
Ni     1.75937252   -0.04134729   -1.78022008       8
Ni     1.75234326   -1.79304111   -0.01592919       9
Co    -1.73275841    0.01149463   -1.79734673      10
Ni    -1.77379572   -0.01946187    1.76816352      11
Co    -1.75476045    1.76953815    0.00017131      12
Cr     0.02651627    1.78279698   -1.76500048      13
Co     1.77952505    1.74169721    0.00454190      14
Co     1.73362939    0.01342790    1.77962098      15
Cr    -0.00305979   -1.80512517    1.79800461      16
Cr     0.02863572    1.77373026    1.78653911      17
Co     0.00000000    0.00000000    0.00000000      18
          18
Lattice="  24.8920   0.0000   0.0000   0.0000  24.8920   0.0000   0.0000   0.0000  24.8920 " ConfE="      -5935.6926" DelE="          1.0368"
Ni    -3.62909534   -0.01500266   -0.00984875       1
Co     0.02966841    0.01334912   -3.46729634       2
Co    -0.00958588   -3.44840832   -0.04169103       3
Ni     3.62560233   -0.03030132    0.03381794       4
Co    -0.03453919   -0.00001355    3.52153754       5
Co     0.01882720    3.52405561   -0.01477153       6
Ni    -1.92234051   -1.79483696    0.02592192       7
Ni     1.93334227    0.01637090   -1.80296861       8
Ni     1.93197377   -1.82121501    0.02532239       9
Co    -1.88741723    0.05920329   -1.80936792      10
Ni    -1.75078247   -0.02301467    1.72281964      11
Co    -1.72831232    1.73162730   -0.01023339      12
Cr     0.00557025    1.62489854   -1.65922166      13
Co     1.75831582    1.70092032   -0.01151259      14
Co     1.68978518    0.00202664    1.72642131      15
Cr     0.03081402   -1.72682768    1.64728734      16
Cr     0.04801869    1.71295906    1.69405469      17
Co     0.00172594   -1.05556332   -1.07232252      18
          18
Lattice="  24.8920   0.0000   0.0000   0.0000  24.8920   0.0000   0.0000   0.0000  24.8920 " ConfE="      -5936.2863" DelE="          0.4430"
Ni    -3.58725310   -0.02833362   -0.01343537       1
Co     0.01742110    0.01409240   -3.54813518       2
Co     0.00075110   -3.55418584   -0.00123946       3
Ni     3.58094699   -0.03973802    0.02924451       4
Co    -0.03045381    0.00438907    3.54941587       5
Co     0.01540179    3.53736215   -0.01031150       6
Ni    -1.75704037   -1.75935745   -0.00146282       7
Ni     1.76336065   -0.02208333   -1.75918562       8
Ni     1.76485503   -1.77190426    0.02107044       9
Co    -1.72106173    0.01991432   -1.77358494      10
Ni    -1.73322103   -0.00889275    1.73906751      11
Co    -1.70531476    1.73899967   -0.00782369      12
Cr     0.00102056    1.70137453   -1.72548493      13
Co     1.73835136    1.71010108    0.00271994      14
Co     1.67503319    0.01367781    1.75245467      15
Cr     0.00639749   -1.77301828    1.75644099      16
Cr     0.05504733    1.73392324    1.73599637      17
Co    -0.00181494   -1.76051321   -1.72266648      18
