          18
Lattice="  24.8920   0.0000   0.0000   0.0000  24.8920   0.0000   0.0000   0.0000  24.8920 " ConfE="      -5923.5668" DelE="          0.0000"
Ni     3.51057553   -0.02843536   -0.01281390       1
Ni    -0.00203321    3.41637365   -0.02547751       2
Ni    -0.02397612   -3.59423175   -0.02961351       3
Co    -0.00048472   -0.04388444   -3.55566082       4
Cr     0.09996613    0.01221641    3.49889002       5
Co    -3.56549767   -0.04738595   -0.00784839       6
Ni     1.75074906   -0.02928509   -1.76475504       7
Ni     1.76154930   -1.83426313   -0.02909399       8
Ni    -0.03031849   -1.82438912    1.75341437       9
Cr     0.00765756    1.65970554   -1.79318205      10
Co     1.75303556   -0.05996878    1.76830932      11
Co    -0.02505598    1.64852504    1.76068765      12
Ni    -1.78684602   -0.06417235   -1.77909489      13
Co    -0.01594771   -1.79752251   -1.80240058      14
Co    -1.79254525   -1.81465489   -0.00247569      15
Co    -1.82128609    1.68454979   -0.01483703      16
Cr    -1.74213151   -0.02120763    1.76588357      17
Co     0.00000000    0.00000000    0.00000000      18
          18
Lattice="  24.8920   0.0000   0.0000   0.0000  24.8920   0.0000   0.0000   0.0000  24.8920 " ConfE="      -5922.1836" DelE="          1.3832"
Ni     3.48453204   -0.04592051   -0.03358221       1
Ni    -0.03889729    3.45621173   -0.02837514       2
Ni    -0.06315656   -3.54203024   -0.01733411       3
Co    -0.01156550   -0.03875721   -3.65542270       4
Cr     0.07852969   -0.01197142    3.62905891       5
Co    -3.45600575   -0.07242693   -0.02810523       6
Ni     1.73628241   -0.12224772   -1.89008395       7
Ni     1.70059302   -1.78704793   -0.03227914       8
Ni    -0.00263488   -1.86118286    1.88722845       9
Cr    -0.03477639    1.66739908   -1.93562705      10
Co     1.74400626   -0.10866185    1.83763986      11
Co    -0.09534556    1.63069482    1.90888088      12
Ni    -1.79736371   -0.01764336   -1.93920929      13
Co    -0.02339063   -1.81454292   -1.89264061      14
Co    -0.79834950   -0.71036860    0.03944924      15
Co    -1.70252757    1.64815245   -0.03060328      16
Cr    -1.74830760    0.00569398    1.88905616      17
Co     1.10628003    1.23082742   -0.05212311      18
          18
Lattice="  24.8920   0.0000   0.0000   0.0000  24.8920   0.0000   0.0000   0.0000  24.8920 " ConfE="      -5923.2080" DelE="          0.3588"
Ni     3.53216337   -0.05190118   -0.01525089       1
Ni    -0.03455566    3.46358005   -0.02183719       2
Ni    -0.06355065   -3.58227374   -0.02192264       3
Co    -0.01027666   -0.04928375   -3.55702120       4
Cr     0.06851408   -0.00766902    3.50797171       5
Co    -3.53108078   -0.07216795   -0.00604190       6
Ni     1.74420449   -0.07532144   -1.78869248       7
Ni     1.76274145   -1.83114749   -0.02372996       8
Ni    -0.07947041   -1.83968292    1.73316258       9
Cr    -0.00015936    1.65600008   -1.79089721      10
Co     1.74778988   -0.08040721    1.77303655      11
Co    -0.04389953    1.66007272    1.77309362      12
Ni    -1.78500046   -0.09072480   -1.74997333      13
Co    -0.04150592   -1.80562033   -1.78777807      14
Co    -0.07585465   -0.07520791    0.03104216      15
Co    -1.80402286    1.70118646   -0.01445256      16
Cr    -1.75290974   -0.03376010    1.77227063      17
Co     1.71863597    1.69843036   -0.03864614      18
