          18
Lattice="  24.8920   0.0000   0.0000   0.0000  24.8920   0.0000   0.0000   0.0000  24.8920 " ConfE="      -5946.7363" DelE="          0.0000"
Ni     3.48862505   -0.02751333   -0.04337584       1
Ni    -0.05131595   -0.01781635    3.38869705       2
Ni    -0.04375530    3.51816200   -0.11205272       3
Ni    -0.03847410   -3.56199740   -0.08077026       4
Co    -3.59509437   -0.02684284   -0.06753306       5
Co    -0.01701750   -0.03998942   -3.65075434       6
Ni     1.74219569    1.72466318   -0.04608059       7
Cr    -0.03159194    1.83992150    1.76426293       8
Cr    -0.01152427   -1.77451079    1.66421351       9
Cr     1.74147119   -1.77490527   -0.06353668      10
Ni    -1.81728469   -1.79771700   -0.08203420      11
Cr     1.78048843   -0.01652604   -1.92116517      12
Cr    -1.89449311    0.01199752    1.65286222      13
Co    -1.79425965   -0.02292618   -1.85315729      14
Cr    -0.06119912    1.64833934   -1.86669591      15
Co    -1.80404541    1.73698749   -0.06325925      16
Cr    -0.04234177   -1.70201272   -1.87970099      17
Ni     0.00000000    0.00000000    0.00000000      18
          18
Lattice="  24.8920   0.0000   0.0000   0.0000  24.8920   0.0000   0.0000   0.0000  24.8920 " ConfE="      -5946.1115" DelE="          0.6248"
Ni     3.45219744   -0.03471237   -0.04548210       1
Ni    -0.05624245   -0.01323353    3.40798077       2
Ni    -0.05286461    3.56927455   -0.13963718       3
Ni    -0.04360925   -3.61379332   -0.11103733       4
Co    -3.60431317   -0.03426798   -0.05413024       5
Co    -0.01261287   -0.03994454   -3.66856363       6
Ni     1.74390707    1.82512030   -0.14367009       7
Cr    -0.08375174    1.99703707    1.77078979       8
Cr    -0.14042233   -1.95586600    1.68382216       9
Cr     1.75460706   -1.86920436   -0.14804559      10
Ni    -1.78627125   -1.78176156   -0.08330986      11
Cr     1.75754947   -0.01877989   -1.89419862      12
Cr    -1.71298376    0.03162682    1.59242887      13
Co    -1.76229140   -0.02855831   -1.83017240      14
Cr    -0.06958648    1.57016954   -1.78825775      15
Co    -1.73317140    1.68928757   -0.04350844      16
Cr    -0.03872046   -1.62502403   -1.79707604      17
Ni     0.99901770   -0.00248740    1.11687068      18
          18
Lattice="  24.8920   0.0000   0.0000   0.0000  24.8920   0.0000   0.0000   0.0000  24.8920 " ConfE="      -5946.5174" DelE="          0.2190"
Ni     3.53934177   -0.02652109   -0.08995550       1
Ni    -0.06547608   -0.00690395    3.43933500       2
Ni    -0.05277708    3.53045377   -0.12371586       3
Ni    -0.04365122   -3.56499004   -0.08423208       4
Co    -3.63904731   -0.03124080   -0.06043080       5
Co    -0.01598139   -0.03311580   -3.66805456       6
Ni     1.71431543    1.70736553   -0.11330239       7
Cr    -0.08090644    1.74424381    1.62023002       8
Cr    -0.05489021   -1.68687225    1.57128471       9
Cr     1.72957465   -1.76506025   -0.11974687      10
Ni    -1.83046216   -1.78039609   -0.08570961      11
Cr     1.78059279   -0.00926600   -1.91503054      12
Cr    -1.80456228    0.02630106    1.61654704      13
Co    -1.79234376   -0.02688061   -1.84036437      14
Cr    -0.10159253    1.55798622   -1.76683385      15
Co    -1.77954218    1.69262448   -0.06355224      16
Cr    -0.05690515   -1.58504726   -1.76517821      17
Ni     1.69608077   -0.01346751    1.64885418      18
