          18
Lattice="  24.8920   0.0000   0.0000   0.0000  24.8920   0.0000   0.0000   0.0000  24.8920 " ConfE="      -5925.3596" DelE="          0.0000"
Ni     0.04512413   -3.36118102   -0.00316760       1
Co    -0.02057594    0.00166093    3.49781562       2
Ni     0.04088693    3.55433123   -0.05588455       3
Co     0.02103148    0.08493708   -3.56340287       4
Co    -3.53514054    0.08442225    0.01449890       5
Ni     3.61493051    0.05801221   -0.02751827       6
Cr    -1.75895186   -1.66414697   -0.04617470       7
Cr     1.85911484   -1.65980178   -0.07527845       8
Cr    -1.67967250   -0.12066156    1.79688585       9
Ni     1.78737675    0.02551707    1.74423290      10
Cr    -0.02039742   -1.60761162   -1.87188430      11
Ni     0.01452491    1.82790815    1.75055061      12
Cr     0.01202756    1.76013636   -1.85085878      13
Ni    -1.80636477    0.08962955   -1.81459486      14
Co     1.78886041    0.07525774   -1.78753027      15
Cr    -1.78083279    1.79262739    0.01927348      16
Cr     1.80882098    1.78779244   -0.04678598      17
Co     0.00000000    0.00000000    0.00000000      18
          18
Lattice="  24.8920   0.0000   0.0000   0.0000  24.8920   0.0000   0.0000   0.0000  24.8920 " ConfE="      -5924.6760" DelE="          0.6836"
Ni     0.04850154   -3.42285035   -0.03950949       1
Co    -0.00966975   -0.00507373    3.48388469       2
Ni     0.04646042    3.56616824   -0.05256310       3
Co     0.01956109    0.08401375   -3.56116087       4
Co    -3.58421624    0.08538975   -0.01093819       5
Ni     3.64766225    0.06693507   -0.02975046       6
Cr    -1.87201820   -1.66961983   -0.11407324       7
Cr     1.91621486   -1.64435854   -0.10096341       8
Cr    -1.81298087   -0.00561378    1.78366520       9
Ni     1.87776021    0.08139009    1.75386987      10
Cr    -0.00132283   -1.55655613   -1.74073331      11
Ni     0.02174164    1.79355755    1.73978419      12
Cr     0.00902926    1.73028888   -1.82439277      13
Ni    -1.79750140    0.07894038   -1.79615477      14
Co     1.75019254    0.07537332   -1.73786202      15
Cr    -1.70405483    1.72191088    0.01862534      16
Cr     1.72671415    1.71484621   -0.04498597      17
Co    -0.01599803   -1.20596613    1.08468560      18
          18
Lattice="  24.8920   0.0000   0.0000   0.0000  24.8920   0.0000   0.0000   0.0000  24.8920 " ConfE="      -5924.8512" DelE="          0.5084"
Ni     0.04359654   -3.45260501   -0.04148523       1
Co    -0.01038091    0.04053002    3.56129498       2
Ni     0.04207059    3.58299726   -0.05598009       3
Co     0.02206169    0.08690872   -3.57385405       4
Co    -3.55807217    0.08236871   -0.00234343       5
Ni     3.62006726    0.06192055   -0.03259628       6
Cr    -1.70470727   -1.62162647   -0.05628655       7
Cr     1.77254137   -1.60809591   -0.08621064       8
Cr    -1.74573042   -0.00758151    1.75601832       9
Ni     1.79219758    0.06810156    1.72794205      10
Cr     0.00041475   -1.58088551   -1.79269174      11
Ni     0.01171399    1.79988174    1.73268337      12
Cr     0.01049330    1.75222518   -1.83160416      13
Ni    -1.78274639    0.09149783   -1.80202918      14
Co     1.74390170    0.08937855   -1.75122094      15
Cr    -1.71735678    1.75914865    0.00351060      16
Cr     1.74337940    1.76255868   -0.06295070      17
Co    -0.00543104   -1.62435422    1.64778715      18
