          18
Lattice="  24.8920   0.0000   0.0000   0.0000  24.8920   0.0000   0.0000   0.0000  24.8920 " ConfE="      -5949.7602" DelE="          0.0000"
Ni    -3.48660287   -0.03617768   -0.04441801       1
Ni     0.02770300    3.49040862   -0.05410418       2
Ni     0.03934259   -0.02619165   -3.59509311       3
Ni     0.02668112   -3.59444817   -0.06702696       4
Ni     3.58340054   -0.09240931   -0.00835102       5
Cr    -0.01620456   -0.02697433    3.50486308       6
Ni    -1.71876730   -0.02722556   -1.79531549       7
Cr    -1.75676909    0.01577391    1.68274043       8
Cr    -0.02570687    1.68558128    1.66434425       9
Ni     0.00723810   -1.84949629    1.72431984      10
Ni     1.79944929   -0.10278420    1.74391685      11
Co     0.03497970    1.72615678   -1.76826454      12
Ni     1.78993326   -1.83400851   -0.08332583      13
Co    -1.75036836   -1.83695418   -0.03364522      14
Cr     1.84107545    1.72739001    0.00380121      15
Cr     0.01206802   -1.77915826   -1.79955149      16
Cr     1.76092653    0.05687467   -1.79154960      17
Co     0.00000000    0.00000000    0.00000000      18
          18
Lattice="  24.8920   0.0000   0.0000   0.0000  24.8920   0.0000   0.0000   0.0000  24.8920 " ConfE="      -5948.9964" DelE="          0.7637"
Ni    -3.46551456   -0.02700078   -0.05690843       1
Ni     0.05063847    3.48812977   -0.04099307       2
Ni     0.04366265   -0.03916395   -3.65780488       3
Ni     0.01883904   -3.58890709   -0.06906899       4
Ni     3.57948151   -0.08335946   -0.00362816       5
Cr    -0.02004673   -0.06444152    3.56883786       6
Ni    -1.72869487   -0.05614788   -1.91458669       7
Cr    -1.81475378   -0.08165856    1.80276350       8
Cr     0.12847124    1.74872824    1.87655781       9
Ni    -0.01376447   -1.81276801    1.71537248      10
Ni     1.75116014   -0.10982827    1.72771107      11
Co     0.07307441    1.74890959   -1.92332913      12
Ni     1.76053217   -1.81093111   -0.08352134      13
Co    -1.69656275   -1.74163518   -0.05661035      14
Cr     1.70932656    1.65839012   -0.00189528      15
Cr    -0.00450492   -1.72401086   -1.76375447      16
Cr     1.68247564    0.04448914   -1.74372135      17
Co    -1.02560627    1.10344109    0.05746120      18
          18
Lattice="  24.8920   0.0000   0.0000   0.0000  24.8920   0.0000   0.0000   0.0000  24.8920 " ConfE="      -5949.5221" DelE="          0.2380"
Ni    -3.52315495   -0.06139390   -0.04149303       1
Ni     0.05823818    3.53926610   -0.04859457       2
Ni     0.04563946   -0.03421510   -3.61757121       3
Ni     0.02694476   -3.61007385   -0.06528284       4
Ni     3.59022995   -0.09144788   -0.01056526       5
Cr    -0.01420223   -0.03501366    3.54301590       6
Ni    -1.68999756   -0.05253626   -1.79053379       7
Cr    -1.70993459   -0.03927994    1.67489902       8
Cr     0.01720854    1.67556904    1.67272409       9
Ni     0.00902993   -1.83557003    1.70910165      10
Ni     1.75684172   -0.10176130    1.70563967      11
Co     0.08662819    1.67035075   -1.73992820      12
Ni     1.77231775   -1.82132515   -0.09298496      13
Co    -1.71722673   -1.79064541   -0.03056737      14
Cr     1.77408182    1.68828034   -0.00804484      15
Cr     0.02165538   -1.76952029   -1.78253709      16
Cr     1.73664355    0.02879023   -1.76715453      17
Co    -1.68274363    1.69222082   -0.00234078      18
