          18
Lattice="  24.8920   0.0000   0.0000   0.0000  24.8920   0.0000   0.0000   0.0000  24.8920 " ConfE="      -5939.8395" DelE="          0.0000"
Cr    -3.53921765    0.03605737    0.05036651       1
Ni    -0.04758358    3.55982762    0.08678413       2
Co     3.57270436    0.02996979    0.06502814       3
Co     0.00557012   -3.53262486    0.05972077       4
Cr     0.02368487    0.04180466   -3.37035463       5
Ni    -0.01107916    0.02232780    3.64137271       6
Co    -1.76230235    0.06147285   -1.66790944       7
Co    -1.79574478    0.04539713    1.76300466       8
Cr    -0.08258691    1.82375592   -1.62669098       9
Ni    -0.01555194    1.78646093    1.81001321      10
Cr    -1.73940833   -1.81162072    0.05421798      11
Co     1.80427770    1.82785349    0.04513441      12
Co     1.79650510   -1.78650240    0.06944034      13
Co     0.01728081   -1.77049518   -1.70355866      14
Ni     0.01016797   -1.74285471    1.85697549      15
Cr     1.84993546    0.01635054   -1.63355546      16
Ni     1.77076494    0.02224155    1.82489959      17
Cr     0.00000000    0.00000000    0.00000000      18
          18
Lattice="  24.8920   0.0000   0.0000   0.0000  24.8920   0.0000   0.0000   0.0000  24.8920 " ConfE="      -5939.0033" DelE="          0.8362"
Cr    -3.53745719    0.01929134    0.04166836       1
Ni    -0.03242745    3.51976550    0.09419046       2
Co     3.58649315    0.04024814    0.07047362       3
Co    -0.00355058   -3.52380119    0.05882891       4
Cr     0.01854885    0.00580498   -3.49928299       5
Ni     0.00171922    0.02383003    3.68966845       6
Co    -1.78682669    0.01592433   -1.79825431       7
Co    -1.80702458    0.00280345    1.90545504       8
Cr     0.02065440    1.84821531   -1.78579659       9
Ni     0.04353444    1.83881071    1.96563584      10
Cr    -1.72766086   -1.75176107    0.04029371      11
Co     1.74225021    1.78289836    0.05409201      12
Co     1.75485354   -1.72252121    0.06271596      13
Co    -0.00746295   -1.68177474   -1.65668156      14
Ni    -0.00102622   -1.69496785    1.82713769      15
Cr     1.71594943    0.01654423   -1.55652205      16
Ni     1.74225408    0.03487459    1.82426760      17
Cr    -0.77674123    0.83289637    0.05698511      18
          18
Lattice="  24.8920   0.0000   0.0000   0.0000  24.8920   0.0000   0.0000   0.0000  24.8920 " ConfE="      -5939.7353" DelE="          0.1042"
Cr    -3.60747987   -0.02973573    0.05366843       1
Ni    -0.01131371    3.60077375    0.09024586       2
Co     3.61472355    0.03005572    0.06763195       3
Co     0.00506607   -3.55011150    0.05737617       4
Cr     0.01936826    0.01651753   -3.45006972       5
Ni     0.00155405    0.01996778    3.65730068       6
Co    -1.72012755    0.02530842   -1.66958140       7
Co    -1.77004115    0.00527878    1.78665058       8
Cr     0.01153508    1.73949420   -1.62116597       9
Ni     0.00535666    1.77804209    1.81855391      10
Cr    -1.72229686   -1.73993576    0.05620805      11
Co     1.76391687    1.79254547    0.03863850      12
Co     1.78654544   -1.75733810    0.05803887      13
Co     0.01997786   -1.72685007   -1.66744822      14
Ni     0.02042887   -1.72643546    1.81837489      15
Cr     1.78417518   -0.00229582   -1.57830741      16
Ni     1.76965731    0.01721784    1.80373776      17
Cr    -1.77034086    1.71751285    0.06739053      18
