          18
Lattice="  24.8920   0.0000   0.0000   0.0000  24.8920   0.0000   0.0000   0.0000  24.8920 " ConfE="      -5946.2038" DelE="          0.0000"
Ni     0.03454234   -3.61479118   -0.03181969       1
Co     0.01179637   -0.06839024    3.48631041       2
Co     0.04592401    3.47734388   -0.03505429       3
Co    -0.01531812   -0.06199410   -3.60794472       4
Co     3.52226271   -0.03309090   -0.02800167       5
Cr    -3.45723379   -0.06658918   -0.04536417       6
Ni     0.00615950   -1.82696778   -1.79982559       7
Ni    -0.00131695    1.73043999   -1.84079192       8
Cr     1.70597030    0.02872190    1.78502338       9
Co    -1.76071134   -0.06257557    1.72886422      10
Cr     1.73440925    1.78511274    0.07133653      11
Co    -1.77161229    1.72497751   -0.03891057      12
Ni     1.74077171   -0.03551496   -1.81205183      13
Cr     0.01653652   -1.82259574    1.75350756      14
Cr     1.81974068   -1.80258106   -0.07837559      15
Co    -1.75180688   -1.84110644   -0.00148400      16
Cr    -1.80079535   -0.03914210   -1.76723780      17
Ni     0.00000000    0.00000000    0.00000000      18
          18
Lattice="  24.8920   0.0000   0.0000   0.0000  24.8920   0.0000   0.0000   0.0000  24.8920 " ConfE="      -5945.6784" DelE="          0.5254"
Ni     0.02968810   -3.60958084   -0.02412640       1
Co     0.01918078   -0.07815861    3.49029049       2
Co     0.05168519    3.47714051   -0.05049713       3
Co    -0.01864520   -0.05710279   -3.60862701       4
Co     3.60342382   -0.07691793   -0.06357386       5
Cr    -3.53323737   -0.07838686   -0.07694749       6
Ni     0.00531515   -1.80793087   -1.78584903       7
Ni     0.00981961    1.70561492   -1.79575862       8
Cr     1.98395120   -0.10930785    1.79044229       9
Co    -1.87031204   -0.10206561    1.71650619      10
Cr     1.98234954    1.77171950   -0.09173947      11
Co    -1.85334746    1.68982166   -0.10089320      12
Ni     1.72074154   -0.04361366   -1.77465904      13
Cr     0.03586003   -1.65937571    1.66616245      14
Cr     1.76672899   -1.74009054   -0.05929262      15
Co    -1.70563597   -1.77912223   -0.00530656      16
Cr    -1.76732263   -0.03708726   -1.69443229      17
Ni     0.12507225    1.13960835    1.20070997      18
          18
Lattice="  24.8920   0.0000   0.0000   0.0000  24.8920   0.0000   0.0000   0.0000  24.8920 " ConfE="      -5946.0271" DelE="          0.1768"
Ni     0.03093544   -3.63090475   -0.03394423       1
Co     0.01164357   -0.08278314    3.54187757       2
Co     0.03107137    3.52566527   -0.06055907       3
Co    -0.01826869   -0.06317351   -3.61671928       4
Co     3.58061911   -0.05643695   -0.04260621       5
Cr    -3.49479945   -0.07260992   -0.06991138       6
Ni     0.00198190   -1.81310958   -1.78352981       7
Ni     0.00112277    1.69855451   -1.79236604       8
Cr     1.73844003   -0.04165232    1.71243735       9
Co    -1.73625737   -0.09447954    1.69053725      10
Cr     1.79046962    1.71248598    0.00264556      11
Co    -1.76016303    1.66100598   -0.07222787      12
Ni     1.71605910   -0.05192118   -1.77858489      13
Cr     0.00362059   -1.74809648    1.69124115      14
Cr     1.77396104   -1.76549970   -0.06760156      15
Co    -1.71125316   -1.79976348   -0.01414371      16
Cr    -1.77342470   -0.04906828   -1.72058708      17
Ni    -0.00273932    1.67328917    1.70036056      18
