          18
Lattice="  24.8920   0.0000   0.0000   0.0000  24.8920   0.0000   0.0000   0.0000  24.8920 " ConfE="      -5937.9478" DelE="          0.0000"
Ni    -0.03777173    0.05937095   -3.46963789       1
Ni    -0.04001977    0.07172856    3.61393810       2
Ni    -0.03485846    3.61265827    0.05337860       3
Ni    -3.58695409    0.08460215    0.04510134       4
Ni     3.48367794    0.07428264    0.02566144       5
Co    -0.02430097   -3.40380271   -0.00320337       6
Cr     1.72988146    0.11522302   -1.73569743       7
Co    -1.76656065    0.02696992   -1.67645449       8
Cr    -1.72774214   -1.63874590   -0.06374018       9
Cr     1.67242923   -1.68745818   -0.03538163      10
Ni    -1.81136738    0.05474010    1.80932312      11
Ni     1.72603941    1.85397816    0.04352471      12
Co    -0.07229055    1.86075835   -1.74910681      13
Cr    -0.02468379   -1.69578212    1.81848723      14
Co    -0.02231038    1.81366777    1.84770826      15
Co     1.73703228    0.03770213    1.83288413      16
Cr    -1.72929379    1.78647710   -0.00828405      17
Co     0.00000000    0.00000000    0.00000000      18
          18
Lattice="  24.8920   0.0000   0.0000   0.0000  24.8920   0.0000   0.0000   0.0000  24.8920 " ConfE="      -5937.3987" DelE="          0.5491"
Ni    -0.03962638    0.06913212   -3.47007502       1
Ni    -0.03990747    0.06459730    3.60365869       2
Ni    -0.02887207    3.60901174    0.04780855       3
Ni    -3.65598509    0.11808044    0.04398295       4
Ni     3.53259021    0.08591289    0.03532548       5
Co    -0.03288870   -3.41366469    0.02164128       6
Cr     1.84903004    0.18112198   -1.77078203       7
Co    -1.88492493    0.12909615   -1.69265959       8
Cr    -1.89711703   -1.63818462    0.00635797       9
Cr     1.84313610   -1.71756481    0.10790101      10
Ni    -1.80648788    0.06841516    1.76586118      11
Ni     1.71232054    1.80688775    0.03984568      12
Co    -0.05750945    1.79830455   -1.70591860      13
Cr    -0.04779199   -1.62192185    1.67600912      14
Co    -0.02431478    1.79919878    1.82818019      15
Co     1.70382253    0.02154603    1.78551887      16
Cr    -1.68489133    1.72138154   -0.04426619      17
Co     0.03038080   -1.10204488   -1.11713655      18
          18
Lattice="  24.8920   0.0000   0.0000   0.0000  24.8920   0.0000   0.0000   0.0000  24.8920 " ConfE="      -5937.7386" DelE="          0.2092"
Ni    -0.04025951    0.08139178   -3.50918175       1
Ni    -0.04254211    0.07434947    3.63109742       2
Ni    -0.03563781    3.62058533    0.05487514       3
Ni    -3.61803795    0.10050812    0.05033921       4
Ni     3.49895923    0.08032793    0.02872847       5
Co    -0.02937204   -3.47545795    0.04061559       6
Cr     1.72260729    0.13528536   -1.71557321       7
Co    -1.75076606    0.08324789   -1.62561888       8
Cr    -1.72652339   -1.58544712   -0.02427603       9
Cr     1.66739424   -1.63696635    0.01078667      10
Ni    -1.80311806    0.06753240    1.79392792      11
Ni     1.68946531    1.81748514    0.04481972      12
Co    -0.06531825    1.82814477   -1.72424244      13
Cr    -0.03505430   -1.64650032    1.75511676      14
Co    -0.02977410    1.81010110    1.84955633      15
Co     1.69058853    0.02650122    1.79785900      16
Cr    -1.69097926    1.75467704   -0.01145424      17
Co    -0.00724233   -1.64676372   -1.65889506      18
