          18
Lattice="  24.8920   0.0000   0.0000   0.0000  24.8920   0.0000   0.0000   0.0000  24.8920 " ConfE="      -5941.2305" DelE="          0.0000"
Ni    -0.10900876   -3.41000243   -0.02716105       1
Co    -0.03336844    0.06385635    3.41879224       2
Cr    -0.00937004    3.70541449   -0.05240640       3
Ni    -0.03749992    0.08547780   -3.63946316       4
Cr    -3.56970153    0.14766784   -0.02807886       5
Co     3.46723939    0.07353413   -0.05767209       6
Cr    -1.80788016   -1.65898131   -0.02173225       7
Cr     1.72340992   -1.76027712    0.01401141       8
Co    -1.72710472    0.02916835    1.64384011       9
Cr     1.68163536   -0.00467312    1.78465939      10
Ni    -0.05690181   -1.69783253   -1.87043357      11
Cr    -0.01706446    1.90821210    1.68768333      12
Ni    -0.02499173    1.86968890   -1.83350056      13
Ni    -1.81686270    0.09555536   -1.84151648      14
Cr     1.77481767    0.05611174   -1.87619895      15
Co    -1.74416777    1.87368095   -0.03360151      16
Cr     1.74286004    1.88421745   -0.05992195      17
Cr     0.00000000    0.00000000    0.00000000      18
          18
Lattice="  24.8920   0.0000   0.0000   0.0000  24.8920   0.0000   0.0000   0.0000  24.8920 " ConfE="      -5940.8728" DelE="          0.3577"
Ni    -0.10495530   -3.36111002   -0.03167182       1
Co    -0.02939461    0.06157609    3.36262277       2
Cr    -0.00986674    3.66776900   -0.03403141       3
Ni    -0.05048901    0.08249092   -3.64085252       4
Cr    -3.64562244    0.19332408   -0.04258608       5
Co     3.53121831    0.07685401   -0.08536690       6
Cr    -1.95617599   -1.65309331   -0.12014312       7
Cr     1.90730013   -1.83264742   -0.13896642       8
Co    -1.86614262    0.07759662    1.67541711       9
Cr     1.95707341    0.04586457    1.84303690      10
Ni    -0.06829168   -1.66164277   -1.81677955      11
Cr    -0.07878726    1.87399687    1.69141255      12
Ni    -0.03328554    1.84471376   -1.79780146      13
Ni    -1.81995511    0.10357374   -1.81700651      14
Cr     1.68502099    0.04139053   -1.76924349      15
Co    -1.72703869    1.82689409   -0.00714310      16
Cr     1.63982983    1.70655263    0.02590421      17
Cr     0.04122517   -0.73267980    0.73611344      18
          18
Lattice="  24.8920   0.0000   0.0000   0.0000  24.8920   0.0000   0.0000   0.0000  24.8920 " ConfE="      -5941.4766" DelE="         -0.2461"
Ni    -0.09102695   -3.45161347   -0.08753756       1
Co    -0.04135225    0.08959497    3.49476837       2
Cr    -0.01453158    3.69030390   -0.04581138       3
Ni    -0.04639070    0.09493759   -3.65770977       4
Cr    -3.58612337    0.16522042   -0.04434705       5
Co     3.52815941    0.08751892   -0.08556679       6
Cr    -1.79892742   -1.61381650   -0.08760496       7
Cr     1.72154784   -1.65152111   -0.07650606       8
Co    -1.71813803    0.07023520    1.62604088       9
Cr     1.70766948    0.08705671    1.68208447      10
Ni    -0.06259799   -1.65259588   -1.83537242      11
Cr    -0.04329335    1.83194837    1.65448302      12
Ni    -0.03579447    1.87372162   -1.83344633      13
Ni    -1.81112517    0.12078161   -1.83666486      14
Cr     1.73059104    0.08017844   -1.84109048      15
Co    -1.72622520    1.86338575   -0.03704196      16
Cr     1.68999251    1.80185004   -0.07111836      17
Cr    -0.04502657   -1.59562040    1.62952049      18
