          18
Lattice="  24.8920   0.0000   0.0000   0.0000  24.8920   0.0000   0.0000   0.0000  24.8920 " ConfE="      -5923.4242" DelE="          0.0000"
Cr     3.40809695   -0.02670447    0.09496325       1
Ni    -0.07172170    0.02229807   -3.47931931       2
Co    -3.67816392   -0.02736051    0.01108599       3
Cr    -0.02159185   -0.06643133    3.57861423       4
Cr    -0.02712982   -3.43229478    0.04284268       5
Ni    -0.09654163    3.53652129    0.06139753       6
Co     1.72994842   -1.67672043    0.00006588       7
Cr     1.68593482    1.73387024    0.12629524       8
Cr     0.03092093   -1.72079394   -1.67936926       9
Ni    -0.03957847    1.73235348   -1.72627023      10
Co     1.67945551    0.01942501    1.85103128      11
Cr    -1.86135699   -0.06391387   -1.69933017      12
Ni    -1.85916969    0.02194151    1.82369459      13
Co    -0.08524737   -1.74246915    1.80616131      14
Cr    -0.05330001    1.72164409    1.82003710      15
Co    -1.86508297   -1.71856916    0.02893488      16
Ni    -1.85535068    1.74083034    0.05140647      17
Co     0.00000000    0.00000000    0.00000000      18
          18
Lattice="  24.8920   0.0000   0.0000   0.0000  24.8920   0.0000   0.0000   0.0000  24.8920 " ConfE="      -5922.9534" DelE="          0.4707"
Cr     3.36662332   -0.03083807    0.06161928       1
Ni    -0.07281233    0.03444032   -3.46715795       2
Co    -3.66750402   -0.03354180    0.00348104       3
Cr    -0.01163868   -0.07875695    3.58947485       4
Cr    -0.03739048   -3.49556307    0.05946688       5
Ni    -0.10525290    3.57849935    0.05663450       6
Co     1.74019791   -1.87551947    0.07727434       7
Cr     1.69174217    1.89619840    0.13350605       8
Cr     0.01421810   -1.81422597   -1.69839033       9
Ni    -0.09889819    1.91018960   -1.81694347      10
Co     1.64377215    0.01343949    1.76995834      11
Cr    -1.76253676   -0.05694555   -1.66338654      12
Ni    -1.82167197    0.01660206    1.79307434      13
Co    -0.08346963   -1.74145057    1.77453268      14
Cr    -0.03137492    1.66968166    1.76418618      15
Co    -1.83239763   -1.71276500    0.01193936      16
Ni    -1.80134483    1.72564562    0.03369718      17
Co     0.78141621    0.06146747   -0.71657576      18
          18
Lattice="  24.8920   0.0000   0.0000   0.0000  24.8920   0.0000   0.0000   0.0000  24.8920 " ConfE="      -5923.6772" DelE="         -0.2530"
Cr     3.45183362   -0.02838832    0.11249961       1
Ni    -0.09386204    0.02129576   -3.51874259       2
Co    -3.68541198   -0.03472955    0.00817623       3
Cr    -0.02766539   -0.07460667    3.61050023       4
Cr    -0.04162714   -3.47090780    0.06513146       5
Ni    -0.09654704    3.55241088    0.07321975       6
Co     1.63989785   -1.67966902    0.03790472       7
Cr     1.67227072    1.73064212    0.13602588       8
Cr     0.01090378   -1.72271694   -1.65946079       9
Ni    -0.07518594    1.71306809   -1.67220299      10
Co     1.62461535    0.04845112    1.78126612      11
Cr    -1.81139710   -0.08218622   -1.68202444      12
Ni    -1.84789104    0.02109225    1.82584547      13
Co    -0.10074244   -1.71882606    1.79082674      14
Cr    -0.05155302    1.69325575    1.80858390      15
Co    -1.83040643   -1.68569015    0.01669341      16
Ni    -1.82914289    1.70881995    0.06731188      17
Co     1.68104823    0.01897293   -1.70621491      18
