          18
Lattice="  24.8920   0.0000   0.0000   0.0000  24.8920   0.0000   0.0000   0.0000  24.8920 " ConfE="      -5936.6946" DelE="          0.0000"
Ni    -0.02448964   -3.42965418    0.00572568       1
Ni    -0.00810176    0.06228449    3.45812302       2
Co    -0.00968366    3.62025692   -0.05104255       3
Cr    -0.06850306    0.00078588   -3.63266132       4
Ni    -3.55963769    0.08195828   -0.04294820       5
Ni     3.55502665    0.02192073   -0.06473591       6
Co    -1.73170149   -1.67017206   -0.00244819       7
Ni     1.76527944   -1.71780497   -0.03660918       8
Co    -1.75276825    0.10992626    1.72665849       9
Co     1.75162600    0.07043446    1.67926829      10
Cr    -0.07975750   -1.69448238   -1.84754472      11
Co    -0.01196784    1.86852295    1.69349265      12
Cr     0.01428000    1.77926748   -1.79278859      13
Co    -1.76440537    0.05767670   -1.83321034      14
Co     1.77998760    0.01843467   -1.87838168      15
Ni    -1.80251343    1.83818548   -0.04388349      16
Cr     1.76320174    1.79946749   -0.03000177      17
Cr     0.00000000    0.00000000    0.00000000      18
          18
Lattice="  24.8920   0.0000   0.0000   0.0000  24.8920   0.0000   0.0000   0.0000  24.8920 " ConfE="      -5936.0341" DelE="          0.6604"
Ni    -0.02699582   -3.39948618   -0.01298645       1
Ni    -0.01857524    0.07296112    3.46901251       2
Co    -0.00507864    3.60048897   -0.03977768       3
Cr    -0.07108779   -0.02148515   -3.62120084       4
Ni    -3.60696241    0.08477807   -0.04847024       5
Ni     3.59595819    0.01852653   -0.06939144       6
Co    -1.83379642   -1.69394734   -0.04277748       7
Ni     1.84213286   -1.71822026   -0.07361611       8
Co    -1.89052317    0.16048485    1.75044284       9
Co     1.87344652    0.10158103    1.70824940      10
Cr    -0.07684828   -1.60910105   -1.77440168      11
Co    -0.00630232    1.75263592    1.64414274      12
Cr     0.01620910    1.63591689   -1.70932642      13
Co    -1.74458794    0.03875534   -1.79194262      14
Co     1.76987905    0.00975241   -1.85437394      15
Ni    -1.79602920    1.80531804   -0.04136913      16
Cr     1.70310101    1.71635516   -0.01204120      17
Cr    -0.03442137   -0.91565785    1.07508334      18
          18
Lattice="  24.8920   0.0000   0.0000   0.0000  24.8920   0.0000   0.0000   0.0000  24.8920 " ConfE="      -5936.5458" DelE="          0.1488"
Ni    -0.03322778   -3.48224244   -0.04840767       1
Ni    -0.00289768    0.09112922    3.50074676       2
Co    -0.00907423    3.63456322   -0.05198528       3
Cr    -0.06797169   -0.01857875   -3.63423264       4
Ni    -3.58322291    0.08370153   -0.04477092       5
Ni     3.57048290    0.03290566   -0.06970155       6
Co    -1.73202887   -1.66084774   -0.03284375       7
Ni     1.74731006   -1.67559823   -0.07125817       8
Co    -1.74711238    0.10997700    1.71870081       9
Co     1.75412819    0.08744488    1.66611773      10
Cr    -0.09524928   -1.60141359   -1.75039448      11
Co     0.00022479    1.79975634    1.64685506      12
Cr     0.02139090    1.62519668   -1.68442377      13
Co    -1.75201037    0.05431767   -1.81528271      14
Co     1.77851276    0.02938177   -1.87848027      15
Ni    -1.79621737    1.82121629   -0.03704433      16
Cr     1.74421036    1.79826893   -0.02012357      17
Cr    -0.02351346   -1.61297624    1.62307948      18
