          18
Lattice="  24.8920   0.0000   0.0000   0.0000  24.8920   0.0000   0.0000   0.0000  24.8920 " ConfE="      -5933.9256" DelE="          0.0000"
Ni    -3.50543578   -0.08493201    0.04406230       1
Ni     0.00375424   -3.64968114    0.04375396       2
Ni     0.01011243   -0.08730016   -3.48231002       3
Cr     0.05764907    3.42741764    0.02406921       4
Co     0.02851876   -0.10540865    3.61365415       5
Cr     3.57357681   -0.03663258   -0.01289980       6
Ni    -1.74330209   -0.08572342    1.80193400       7
Ni     1.77269737   -0.05230599    1.78118933       8
Co    -0.03385363    1.75079024    1.74440250       9
Ni    -1.73231171   -1.86683192    0.04700517      10
Co    -1.74188632   -0.01702611   -1.72862733      11
Ni     1.79502097   -0.09192439   -1.73196037      12
Cr     0.03507810    1.75227616   -1.71366548      13
Ni     0.02515381   -1.87474800   -1.71228222      14
Co     1.81276999    1.72536791    0.00799377      15
Co     0.05985309   -1.90002205    1.84274103      16
Co     1.83099297   -1.86700895    0.07317397      17
Ni     0.00000000    0.00000000    0.00000000      18
          18
Lattice="  24.8920   0.0000   0.0000   0.0000  24.8920   0.0000   0.0000   0.0000  24.8920 " ConfE="      -5933.4398" DelE="          0.4857"
Ni    -3.47148762   -0.07353013    0.03965463       1
Ni     0.00179926   -3.65173156    0.04032507       2
Ni     0.02639960   -0.12721969   -3.54177254       3
Cr     0.07949826    3.49290679    0.02424952       4
Co     0.05631288   -0.14355085    3.68068906       5
Cr     3.55885496   -0.00262247   -0.01877006       6
Ni    -1.71834362   -0.10670052    1.85679544       7
Ni     1.72574872   -0.02258782    1.76242378       8
Co     0.01717107    1.81313415    2.04321110       9
Ni    -1.70439984   -1.83666266    0.04716641      10
Co    -1.75768737   -0.08608738   -1.83840238      11
Ni     1.74590374   -0.07576625   -1.70143274      12
Cr     0.10633308    1.78833979   -1.99991242      13
Ni     0.02508474   -1.83827582   -1.69357729      14
Co     1.66906105    1.72490314    0.01862643      15
Co     0.06091113   -1.89475172    1.84554917      16
Co     1.81410413   -1.83766510    0.08429189      17
Ni    -0.89466332    1.14641083   -0.03421437      18
          18
Lattice="  24.8920   0.0000   0.0000   0.0000  24.8920   0.0000   0.0000   0.0000  24.8920 " ConfE="      -5933.9375" DelE="         -0.0119"
Ni    -3.52850187   -0.10612578    0.04577415       1
Ni     0.00607265   -3.66485371    0.04700107       2
Ni     0.02222398   -0.09961400   -3.49604020       3
Cr     0.08388808    3.50419068   -0.00547399       4
Co     0.04824995   -0.13120377    3.65623272       5
Cr     3.58259990   -0.02776894   -0.01430675       6
Ni    -1.70268336   -0.10788572    1.80837813       7
Ni     1.74568681   -0.05465783    1.75830388       8
Co     0.00022839    1.73080513    1.81232168       9
Ni    -1.69928486   -1.83574790    0.05932323      10
Co    -1.70017414   -0.05814450   -1.73012080      11
Ni     1.75923306   -0.10241140   -1.68814492      12
Cr     0.06860330    1.72803731   -1.72345263      13
Ni     0.03657531   -1.85622721   -1.68073977      14
Co     1.69104790    1.70098116   -0.00263473      15
Co     0.07363123   -1.91662878    1.85684292      16
Co     1.83158856   -1.86804589    0.09069492      17
Ni    -1.68483902    1.65003347    0.02793607      18
