          18
Lattice="  24.8920   0.0000   0.0000   0.0000  24.8920   0.0000   0.0000   0.0000  24.8920 " ConfE="      -5927.4698" DelE="          0.0000"
Cr     0.00752751   -0.12061215   -3.58251368       1
Cr     0.00042210    3.59390882    0.00484325       2
Co     0.00536108   -0.01462880    3.54934950       3
Co    -0.01328107   -3.61709098    0.01938551       4
Cr    -3.58613232   -0.02703285   -0.03691062       5
Ni     3.51017835   -0.00544706   -0.00296663       6
Cr    -1.59623752   -0.08458689   -1.73525029       7
Cr     1.63776574   -0.03729846   -1.76837817       8
Cr    -1.63265236    1.78632978   -0.16153583       9
Cr     1.65591820    1.78123872   -0.12115204      10
Cr    -0.06027119   -1.98469285   -1.70045786      11
Ni     0.00374629    1.75600517    1.80691180      12
Ni    -0.00930775   -1.79391451    1.79675438      13
Co    -1.77832598   -1.80876418    0.01214067      14
Ni     1.76535110   -1.81646069    0.03986139      15
Cr    -1.81807333    0.01117360    1.73198949      16
Cr     1.79756071   -0.00426032    1.80778700      17
Co     0.00000000    0.00000000    0.00000000      18
          18
Lattice="  24.8920   0.0000   0.0000   0.0000  24.8920   0.0000   0.0000   0.0000  24.8920 " ConfE="      -5927.1810" DelE="          0.2888"
Cr    -0.02363018   -0.08861510   -3.37181075       1
Cr    -0.01258937    3.52136337   -0.15994258       2
Co     0.01229006   -0.00087420    3.49423815       3
Co    -0.00129105   -3.63696568   -0.01583440       4
Cr    -3.69434374   -0.05709342    0.10816823       5
Ni     3.60963437   -0.03578656    0.01384837       6
Cr    -1.93443533   -0.14956684   -1.61363961       7
Cr     1.91844579   -0.09150334   -1.74761587       8
Cr    -1.87328771    1.84881944   -0.09974174       9
Cr     1.89850066    1.83293819   -0.05315798      10
Cr    -0.08244004   -1.83824354   -1.66690782      11
Ni     0.00938698    1.77285998    1.69552065      12
Ni     0.00524789   -1.77614566    1.73007665      13
Co    -1.79025700   -1.85838023    0.00712751      14
Ni     1.77328116   -1.82068642    0.00806400      15
Cr    -1.65385551    0.00042516    1.50936905      16
Cr     1.69784511    0.01875442    1.61121245      17
Co     0.02337139    0.76514266   -0.78389042      18
          18
Lattice="  24.8920   0.0000   0.0000   0.0000  24.8920   0.0000   0.0000   0.0000  24.8920 " ConfE="      -5927.8088" DelE="         -0.3390"
Cr    -0.06827943   -0.06349131   -3.51297653       1
Cr    -0.01451063    3.64082749    0.02784571       2
Co     0.01166841   -0.01665745    3.53006779       3
Co    -0.00344846   -3.64791550    0.00335780       4
Cr    -3.62762719   -0.04496286   -0.01462986       5
Ni     3.56751160   -0.03141976    0.00570756       6
Cr    -1.51800906   -0.11126901   -1.46449250       7
Cr     1.56501908   -0.04238705   -1.60180806       8
Cr    -1.78647518    1.80817856    0.01037450       9
Cr     1.78929625    1.77890723   -0.00360301      10
Cr    -0.04968572   -1.95814859   -1.70604837      11
Ni     0.00268993    1.73424922    1.73071342      12
Ni    -0.00604293   -1.78006429    1.75188921      13
Co    -1.77263385   -1.84606458    0.02789476      14
Ni     1.75318641   -1.83003985    0.03152724      15
Cr    -1.72680466   -0.02558186    1.63185708      16
Cr     1.71830734   -0.01147664    1.66924621      17
Co    -0.03182621    1.76946243   -1.69532352      18
