          18
Lattice="  24.8920   0.0000   0.0000   0.0000  24.8920   0.0000   0.0000   0.0000  24.8920 " ConfE="      -5945.8849" DelE="          0.0000"
Co     3.42976592    0.03969137    0.04891037       1
Cr    -0.10244511   -0.04815145    3.50143256       2
Ni    -3.58267108    0.04154921   -0.04590119       3
Ni    -0.06276880    0.03932978   -3.59528877       4
Co    -0.01522066    3.59301993   -0.01506139       5
Cr    -0.03144017   -3.46421456   -0.00693464       6
Co     1.74041002    1.78536243    0.02801996       7
Cr     1.67331788   -1.66005996    0.04336248       8
Ni    -0.03954639    1.76187470    1.76266087       9
Co    -0.03626009   -1.73759466    1.75599343      10
Cr     1.74249076    0.07206803   -1.77731796      11
Ni    -1.85160431    0.03965603    1.75772909      12
Co    -1.83615867    0.03485796   -1.80743530      13
Co    -0.01902207    1.80868378   -1.81015164      14
Ni    -0.05681071   -1.72720817   -1.80934993      15
Ni    -1.80549648    1.80623459   -0.04695373      16
Co    -1.82935940   -1.76122469   -0.03717970      17
Co     0.00000000    0.00000000    0.00000000      18
          18
Lattice="  24.8920   0.0000   0.0000   0.0000  24.8920   0.0000   0.0000   0.0000  24.8920 " ConfE="      -5945.3470" DelE="          0.5379"
Co     3.34244220    0.04760556    0.07366110       1
Cr    -0.02874298   -0.03879093    3.42649998       2
Ni    -3.57636229    0.05047759   -0.03607408       3
Ni    -0.05820583    0.03853365   -3.59162049       4
Co    -0.03338027    3.65265840   -0.02355076       5
Cr    -0.04873826   -3.50907388    0.00585631       6
Co     1.75577902    1.95365810    0.01955170       7
Cr     1.79154161   -1.88460117    0.01392171       8
Ni    -0.06013747    1.87985094    1.77099074       9
Co    -0.07023855   -1.89039434    1.79445476      10
Cr     1.71030021    0.10864046   -1.73809618      11
Ni    -1.77348545    0.04253093    1.72869783      12
Co    -1.80578510    0.03575819   -1.77873216      13
Co     0.00280913    1.78220843   -1.76650419      14
Ni    -0.01345515   -1.68005150   -1.72410360      15
Ni    -1.77795176    1.80839584   -0.04583509      16
Co    -1.80455798   -1.75203273   -0.01951901      17
Co     0.68014504   -0.06393790    0.59305121      18
          18
Lattice="  24.8920   0.0000   0.0000   0.0000  24.8920   0.0000   0.0000   0.0000  24.8920 " ConfE="      -5946.2038" DelE="         -0.3189"
Co     3.50049529    0.03693585   -0.01348128       1
Cr    -0.11595616   -0.04706727    3.53770692       2
Ni    -3.58958078    0.04643214   -0.04453276       3
Ni    -0.07175987    0.04138236   -3.61278325       4
Co    -0.01631957    3.61192969   -0.02025374       5
Cr    -0.05390641   -3.51165337   -0.01848376       6
Co     1.70407040    1.76891877   -0.02059866       7
Cr     1.63552738   -1.66033573    0.01303206       8
Ni    -0.05883582    1.77724296    1.74341248       9
Co    -0.05864656   -1.75744787    1.71431909      10
Cr     1.66396633    0.09605511   -1.70065479      11
Ni    -1.79613288    0.03393014    1.72751508      12
Co    -1.84205521    0.03591989   -1.81090190      13
Co    -0.02451891    1.78828625   -1.80704562      14
Ni    -0.07044292   -1.68905762   -1.77199132      15
Ni    -1.77731057    1.78383431   -0.05842791      16
Co    -1.83115426   -1.75163319   -0.04312711      17
Co     1.67336920    0.00927383    1.69733866      18
