          18
Lattice="  24.8920   0.0000   0.0000   0.0000  24.8920   0.0000   0.0000   0.0000  24.8920 " ConfE="      -5938.2803" DelE="          0.0000"
Ni     0.01334843   -0.00897093    3.51214560       1
Cr    -0.00920853    3.49719867   -0.00868700       2
Ni    -0.01112038   -0.05819493   -3.58871072       3
Ni    -0.00983212   -3.54778469   -0.02004241       4
Cr    -3.47304714   -0.00665467    0.03777065       5
Ni     3.54487189   -0.02581162   -0.00180483       6
Co    -1.79708855    0.00687015    1.73826755       7
Ni     1.76358454   -0.01449324    1.76623962       8
Co    -1.68887922    1.79956379   -0.01977366       9
Ni     1.71279883    1.74476438   -0.00416787      10
Ni     0.00553133   -1.80493258    1.74993873      11
Cr    -0.00646165    1.75519547   -1.83560967      12
Co    -0.02591450   -1.83428784   -1.85171066      13
Co    -1.78556154   -1.80062157   -0.00449921      14
Ni     1.77943349   -1.77706373   -0.03525559      15
Ni    -1.76180830   -0.03263546   -1.79040851      16
Co     1.77203036   -0.05253889   -1.81879791      17
Ni     0.00000000    0.00000000    0.00000000      18
          18
Lattice="  24.8920   0.0000   0.0000   0.0000  24.8920   0.0000   0.0000   0.0000  24.8920 " ConfE="      -5937.5926" DelE="          0.6877"
Ni     0.02923235    0.00859688    3.46847499       1
Cr    -0.00157445    3.45766658    0.01575433       2
Ni    -0.01597830   -0.04261876   -3.57589501       3
Ni    -0.01403147   -3.53316274   -0.01384155       4
Cr    -3.58992479   -0.04310166   -0.00884801       5
Ni     3.61431997   -0.04573035   -0.01723208       6
Co    -2.00449683   -0.05767896    1.74633517       7
Ni     1.90976674   -0.06543911    1.76849653       8
Co    -1.95594636    1.79591049   -0.12274533       9
Ni     1.87997542    1.75700619   -0.04785169      10
Ni     0.00437683   -1.70278757    1.68372067      11
Cr     0.02003428    1.66601631   -1.67204512      12
Co    -0.02597860   -1.80870216   -1.82853036      13
Co    -1.79687084   -1.77907952    0.00127220      14
Ni     1.77287821   -1.74548025   -0.04031874      15
Ni    -1.75272259   -0.03973851   -1.75181932      16
Co     1.74281150   -0.03476799   -1.77396442      17
Ni    -0.06640878    1.03540680    1.01810263      18
          18
Lattice="  24.8920   0.0000   0.0000   0.0000  24.8920   0.0000   0.0000   0.0000  24.8920 " ConfE="      -5938.1443" DelE="          0.1361"
Ni     0.02071829   -0.03316365    3.54614359       1
Cr     0.01512364    3.54809695   -0.05034927       2
Ni    -0.01399828   -0.05202454   -3.60152656       3
Ni    -0.01117780   -3.55844881   -0.02286587       4
Cr    -3.52828220   -0.02268366    0.00400372       5
Ni     3.56370740   -0.03420129   -0.01254570       6
Co    -1.81078541   -0.01823874    1.70788759       7
Ni     1.78206398   -0.04746948    1.73972586       8
Co    -1.70875148    1.74922651   -0.07794413       9
Ni     1.72461676    1.70854371   -0.04892658      10
Ni     0.00148046   -1.75991678    1.70958705      11
Cr    -0.01284429    1.73522330   -1.79365125      12
Co    -0.02093245   -1.83259946   -1.85332367      13
Co    -1.77033725   -1.78598608   -0.01339049      14
Ni     1.75262183   -1.75787862   -0.04745938      15
Ni    -1.73131880   -0.04886612   -1.76824154      16
Co     1.74407762   -0.05553166   -1.80773848      17
Ni     0.00616180    1.69025815    1.68903067      18
