          18
Lattice="  24.8920   0.0000   0.0000   0.0000  24.8920   0.0000   0.0000   0.0000  24.8920 " ConfE="      -5948.8926" DelE="          0.0000"
Ni    -0.01583733   -3.48869489    0.01556253       1
Ni    -0.03133528    0.02451294    3.58064417       2
Ni    -0.03223416    3.59323556    0.04506853       3
Co     3.46608245    0.05075930    0.03472025       4
Cr    -0.03328868    0.10770819   -3.49775048       5
Cr    -3.55515958    0.06291817   -0.02553145       6
Ni     1.72536863   -0.00108117    1.77294013       7
Ni    -1.81751636   -1.74373082    0.01538103       8
Cr     0.01270112   -1.66735215   -1.70840302       9
Cr     1.81499898    0.03436096   -1.68191294      10
Cr    -0.03122128   -1.69586547    1.73921714      11
Ni    -0.01621302    1.81986337   -1.72919457      12
Co    -1.80627274    0.06855158   -1.72133835      13
Co    -1.78608251    1.79630070    0.05929509      14
Cr    -1.78494773    0.05334999    1.78809790      15
Cr     1.75370263    1.83661824    0.04538457      16
Cr    -0.05114863    1.74613889    1.78971891      17
Co     0.00000000    0.00000000    0.00000000      18
          18
Lattice="  24.8920   0.0000   0.0000   0.0000  24.8920   0.0000   0.0000   0.0000  24.8920 " ConfE="      -5948.2274" DelE="          0.6652"
Ni    -0.00876297   -3.46974734    0.01181869       1
Ni    -0.04132079    0.04051439    3.63555642       2
Ni    -0.02510184    3.60100080    0.04501997       3
Co     3.43641521    0.06940298    0.05442309       4
Cr    -0.06036961    0.12522248   -3.57970163       5
Cr    -3.56597914    0.04289948   -0.02283528       6
Ni     1.75992451    0.07011026    1.92517213       7
Ni    -1.75036304   -1.71676773    0.02579996       8
Cr    -0.10296295   -1.67624611   -1.86768631       9
Cr     1.82973134    0.13096861   -1.85766886      10
Cr    -0.05130307   -1.68308971    1.87616981      11
Ni    -0.00492978    1.78634855   -1.70975180      12
Co    -1.73966923    0.04519801   -1.70618282      13
Co    -1.73145165    1.75304289    0.07930820      14
Cr    -1.72993871    0.04347962    1.74421858      15
Cr     1.70941913    1.73741911    0.05234550      16
Cr    -0.03874896    1.69008970    1.74656113      17
Co     1.02310099   -0.96159167   -0.05441926      18
          18
Lattice="  24.8920   0.0000   0.0000   0.0000  24.8920   0.0000   0.0000   0.0000  24.8920 " ConfE="      -5948.5373" DelE="          0.3553"
Ni    -0.04553819   -3.52625445    0.00705182       1
Ni    -0.04385727    0.03375539    3.59931933       2
Ni    -0.03233385    3.60691680    0.04655104       3
Co     3.50442019    0.06876655    0.04277619       4
Cr    -0.04299376    0.12443334   -3.55383320       5
Cr    -3.60133290    0.06197729   -0.01916990       6
Ni     1.69555483    0.04333159    1.78157887       7
Ni    -1.79352617   -1.71490760    0.02524459       8
Cr    -0.04476164   -1.57860177   -1.67827856       9
Cr     1.75548931    0.07293255   -1.69126008      10
Cr    -0.05514588   -1.63958065    1.71182307      11
Ni    -0.01245008    1.79419650   -1.69889431      12
Co    -1.75875007    0.06335475   -1.69497275      13
Co    -1.73644473    1.75243621    0.09761315      14
Cr    -1.77760475    0.06752480    1.76228254      15
Cr     1.73164904    1.79345587    0.04461878      16
Cr    -0.06674753    1.71830673    1.75127899      17
Co     1.62483659   -1.63586109   -0.02735980      18
