          18
Lattice="  24.8920   0.0000   0.0000   0.0000  24.8920   0.0000   0.0000   0.0000  24.8920 " ConfE="      -5943.6442" DelE="          0.0000"
Ni    -0.07127647    0.03546072    3.54193693       1
Ni    -3.49784835    0.02896205    0.07238105       2
Ni    -0.01197149    3.59844379    0.02564967       3
Cr    -0.01691657   -0.00501419   -3.48706273       4
Cr     3.53430248    0.03613020   -0.01527444       5
Cr    -0.02990481   -3.51551184    0.03966314       6
Ni    -0.08082402    1.78572415    1.80050053       7
Co    -1.77461966    1.82007222    0.00725368       8
Ni    -0.00099252    1.83125122   -1.75295553       9
Ni     1.76265522    0.03284869    1.82589500      10
Co    -0.03929138   -1.71032973    1.79123470      11
Co    -1.76375124   -1.72399758    0.08824100      12
Co     1.80598985    1.75935207   -0.00372461      13
Co    -1.77030179    0.03490381   -1.78457905      14
Co     1.77308611    0.02656005   -1.75549122      15
Cr     1.68193000   -1.66433842    0.01757120      16
Cr    -0.06003731   -1.70598789   -1.73803573      17
Co     0.00000000    0.00000000    0.00000000      18
          18
Lattice="  24.8920   0.0000   0.0000   0.0000  24.8920   0.0000   0.0000   0.0000  24.8920 " ConfE="      -5942.7340" DelE="          0.9102"
Ni    -0.07623194    0.04283529    3.51248099       1
Ni    -3.47512057    0.02176145    0.07313674       2
Ni    -0.00293511    3.64469566    0.02744003       3
Cr    -0.03626082    0.00106092   -3.50086261       4
Cr     3.54073935    0.02887784   -0.00446211       5
Cr    -0.01992905   -3.60521130    0.03602788       6
Ni    -0.01696149    1.93818577    1.84262943       7
Co    -1.84694461    2.00697429   -0.06624862       8
Ni    -0.01212484    1.81357681   -1.70609541       9
Ni     1.71134424    0.03749927    1.79844294      10
Co     0.01151956   -1.82169312    1.79376924      11
Co    -1.81816116   -1.91868934    0.02366604      12
Co     1.78271430    1.74658127    0.00752283      13
Co    -1.73517432    0.02464127   -1.70196548      14
Co     1.70553396    0.00353269   -1.69091798      15
Cr     1.60916652   -1.64939403    0.02726074      16
Cr    -0.09732081   -1.68396347   -1.69928650      17
Co    -0.94853844    0.06093730    0.83425764      18
          18
Lattice="  24.8920   0.0000   0.0000   0.0000  24.8920   0.0000   0.0000   0.0000  24.8920 " ConfE="      -5943.5303" DelE="          0.1140"
Ni     0.00370775    0.03123698    3.58947390       1
Ni    -3.54182250    0.03109423    0.04801303       2
Ni    -0.00944639    3.61395483    0.02405813       3
Cr    -0.02211027   -0.00150040   -3.51284218       4
Cr     3.57719816    0.03422559   -0.01953617       5
Cr    -0.02547979   -3.56685764    0.03721070       6
Ni    -0.02843971    1.79714191    1.78139233       7
Co    -1.75941120    1.80630434    0.01912300       8
Ni     0.00001922    1.80722000   -1.72419692       9
Ni     1.75005840    0.03290157    1.79598530      10
Co     0.01852874   -1.70356444    1.72347588      11
Co    -1.72479859   -1.71275669    0.04903952      12
Co     1.80527050    1.73746290   -0.00755100      13
Co    -1.73478668    0.03354367   -1.74005977      14
Co     1.73272371    0.00706896   -1.70890001      15
Cr     1.66141707   -1.64487980    0.00760510      16
Cr    -0.05634858   -1.67613403   -1.71698665      17
Co    -1.76388914    0.02195144    1.82573684      18
