          18
Lattice="  24.8920   0.0000   0.0000   0.0000  24.8920   0.0000   0.0000   0.0000  24.8920 " ConfE="      -5948.7437" DelE="          0.0000"
Ni     0.02714494    0.06563350   -3.45229534       1
Ni    -3.55567289    0.05568115    0.09872532       2
Ni     0.00708393    0.06828452    3.65352088       3
Co     3.59666816    0.04002243    0.02366772       4
Cr    -0.00789318    3.60127549    0.09091771       5
Cr    -0.06666607   -3.38983467    0.02881940       6
Ni     0.03269784    1.78132341   -1.69345298       7
Cr     0.01582299   -1.59758277   -1.62958633       8
Co     1.81401055    1.77808124    0.03798454       9
Co     1.79555466   -1.64871562    0.02489591      10
Ni    -1.73579660    1.79827308    0.07640437      11
Ni     0.02217568    1.81685078    1.85203750      12
Ni     0.00674251   -1.67743251    1.86821183      13
Ni     1.79034734    0.06848191    1.87687347      14
Cr    -1.84279527    0.05106268   -1.73281831      15
Co    -1.77240108   -1.69415763    0.06455166      16
Co    -1.77520304    0.05729736    1.87453312      17
Co     0.00000000    0.00000000    0.00000000      18
          18
Lattice="  24.8920   0.0000   0.0000   0.0000  24.8920   0.0000   0.0000   0.0000  24.8920 " ConfE="      -5948.1794" DelE="          0.5643"
Ni     0.02289532    0.05241888   -3.42166669       1
Ni    -3.55915404    0.06014222    0.09373276       2
Ni     0.00968604    0.07351120    3.65852985       3
Co     3.51119903   -0.00202808    0.01761743       4
Cr    -0.01981961    3.67060436    0.10781213       5
Cr    -0.06483613   -3.46583762    0.07047961       6
Ni    -0.03806148    1.91277335   -1.72589771       7
Cr    -0.04626332   -1.83819154   -1.68584079       8
Co     1.80708128    1.87693979    0.07003032       9
Co     1.84863970   -1.88228498    0.17202594      10
Ni    -1.69486735    1.77271232    0.06829851      11
Ni     0.02686187    1.81729431    1.82947732      12
Ni     0.00861230   -1.65260626    1.83811573      13
Ni     1.77353961    0.06434783    1.83515190      14
Cr    -1.74701972    0.02104818   -1.68165433      15
Co    -1.68752902   -1.60897216    0.02718136      16
Co    -1.76173650    0.06493478    1.86284325      17
Co     0.80867632   -0.07192134   -0.78951146      18
          18
Lattice="  24.8920   0.0000   0.0000   0.0000  24.8920   0.0000   0.0000   0.0000  24.8920 " ConfE="      -5948.8518" DelE="         -0.1081"
Ni     0.00179437    0.06975048   -3.49529794       1
Ni    -3.56833020    0.05951651    0.09605889       2
Ni     0.00495926    0.07270990    3.66854899       3
Co     3.61653839    0.04022332    0.05885460       4
Cr    -0.01593330    3.63373052    0.10308742       5
Cr    -0.06755877   -3.43722565    0.03599983       6
Ni     0.00011477    1.77869516   -1.66550209       7
Cr    -0.01163846   -1.58880292   -1.60277411       8
Co     1.79181590    1.80163727    0.08068442       9
Co     1.75540004   -1.68327233    0.09095553      10
Ni    -1.70120678    1.76024968    0.08044699      11
Ni     0.01856884    1.81306579    1.85003359      12
Ni    -0.00399752   -1.63978042    1.84285737      13
Ni     1.77722275    0.07416754    1.85887827      14
Cr    -1.79768947    0.04092668   -1.71820828      15
Co    -1.69595712   -1.59712109    0.02814130      16
Co    -1.78499358    0.07186985    1.88685297      17
Co     1.70626588    0.00726720   -1.62812040      18
