          18
Lattice="  24.8920   0.0000   0.0000   0.0000  24.8920   0.0000   0.0000   0.0000  24.8920 " ConfE="      -5945.0018" DelE="          0.0000"
Ni     0.00966843   -3.46581448    0.03676127       1
Ni    -3.56067124    0.03264452    0.02853021       2
Cr    -0.04886245   -0.02273705   -3.38527871       3
Cr     3.54657017    0.03720072    0.10729582       4
Cr    -0.04194206    0.03658886    3.67020327       5
Co    -0.01786553    3.61321857    0.05817022       6
Ni     1.76216932   -1.72082543    0.04993952       7
Ni    -1.76026204   -1.72657559    0.03636963       8
Ni     1.73456509    0.06109543    1.83876062       9
Ni     1.76398539    1.82428084    0.04268444      10
Cr     1.69643208   -0.02775618   -1.69894415      11
Ni    -0.01892030    1.85041613   -1.71288444      12
Ni    -1.74845367    0.06421972    1.79849691      13
Ni    -1.79310783    1.82479473    0.02677142      14
Co    -1.70606745   -0.00490662   -1.74055938      15
Co     0.00401059   -1.73933511    1.86702467      16
Cr    -0.02515139    1.86900932    1.80136336      17
Cr     0.00000000    0.00000000    0.00000000      18
          18
Lattice="  24.8920   0.0000   0.0000   0.0000  24.8920   0.0000   0.0000   0.0000  24.8920 " ConfE="      -5944.3108" DelE="          0.6909"
Ni     0.01168968   -3.41447797    0.03312387       1
Ni    -3.61656158    0.04114756    0.04656538       2
Cr    -0.06280433    0.00501347   -3.46472026       3
Cr     3.63383791    0.07603182    0.15158468       4
Cr    -0.04220820    0.02731875    3.63626330       5
Co    -0.01277054    3.60238777    0.05077179       6
Ni     1.90363005   -1.74243768    0.10802495       7
Ni    -1.89080882   -1.74342438    0.08442967       8
Ni     1.72614595    0.05653776    1.80161399       9
Ni     1.74681200    1.78170510    0.04161916      10
Cr     1.84140574    0.03193583   -1.68932052      11
Ni    -0.02710453    1.75839890   -1.69822254      12
Ni    -1.73818615    0.06491055    1.77025291      13
Ni    -1.77600647    1.79151162    0.02943072      14
Co    -1.87351943    0.04521060   -1.74138362      15
Co     0.00031444   -1.68762037    1.78121587      16
Cr    -0.03347282    1.81257190    1.78112451      17
Cr     0.01129886   -0.77940941   -0.81802637      18
          18
Lattice="  24.8920   0.0000   0.0000   0.0000  24.8920   0.0000   0.0000   0.0000  24.8920 " ConfE="      -5945.1582" DelE="         -0.1564"
Ni     0.00193981   -3.50072123    0.05659332       1
Ni    -3.58345961    0.03785248    0.04501602       2
Cr    -0.02736545    0.05241941   -3.52944281       3
Cr     3.56603498    0.04739224    0.12737371       4
Cr    -0.04559748    0.03526352    3.67228284       5
Co    -0.01559163    3.63326922    0.05272526       6
Ni     1.72876052   -1.68161303    0.05772437       7
Ni    -1.75980983   -1.70201566    0.06211778       8
Ni     1.70575390    0.06872045    1.82466325       9
Ni     1.74277746    1.80512780    0.04869263      10
Cr     1.70983871    0.01780141   -1.67252032      11
Ni    -0.01889462    1.79635170   -1.70196593      12
Ni    -1.72585042    0.07302811    1.79711047      13
Ni    -1.77084228    1.81027394    0.03912176      14
Co    -1.72212840    0.02186982   -1.72253213      15
Co    -0.00571743   -1.73064170    1.84385944      16
Cr    -0.03809558    1.85185946    1.79351524      17
Cr    -0.04327966   -1.61897909   -1.72786171      18
