          18
Lattice="  24.8920   0.0000   0.0000   0.0000  24.8920   0.0000   0.0000   0.0000  24.8920 " ConfE="      -5946.4240" DelE="          0.0000"
Co    -3.58033458   -0.02254142   -0.03882040       1
Cr     0.02005735   -3.51695793   -0.00919292       2
Cr    -0.05443819    3.51080829   -0.03653110       3
Cr     3.50236872   -0.05894564   -0.04380659       4
Cr    -0.01637680   -0.04094646   -3.51259179       5
Cr    -0.05691297   -0.00258027    3.48194507       6
Ni    -0.06478068   -1.78398062   -1.73994447       7
Ni    -1.81697290   -0.03553376    1.70710034       8
Ni    -0.04017294   -1.76943624    1.74050305       9
Co    -1.83851685   -0.03883951   -1.74656979      10
Ni    -0.05460998    1.75038149   -1.78163166      11
Co    -1.79405332    1.81156190    0.00717786      12
Co     1.79462160   -1.77184828    0.00080532      13
Cr     1.78218334    1.77792347   -0.07519340      14
Co     1.75342662   -0.00161739   -1.79710814      15
Cr    -0.07760083    1.75213086    1.71058959      16
Cr     1.74671866    0.00218346    1.72704080      17
Co     0.00000000    0.00000000    0.00000000      18
          18
Lattice="  24.8920   0.0000   0.0000   0.0000  24.8920   0.0000   0.0000   0.0000  24.8920 " ConfE="      -5945.3652" DelE="          1.0588"
Co    -3.51373949   -0.04237416   -0.02933516       1
Cr    -0.01413279   -3.42266199   -0.04029968       2
Cr    -0.05514468    3.51872920   -0.03597227       3
Cr     3.51814035   -0.07560899   -0.04475725       4
Cr     0.01155378   -0.00986764   -3.61795119       5
Cr    -0.02977612    0.02573479    3.57138914       6
Ni     0.01983817   -1.78091674   -1.96275658       7
Ni    -1.84225829    0.00767126    1.89150447       8
Ni     0.00376325   -1.77812229    1.92485214       9
Co    -1.85119465    0.03833746   -1.92291471      10
Ni    -0.04836091    1.69047690   -1.75326314      11
Co    -1.74520251    1.70289977    0.02188943      12
Co     1.66049429   -1.71368500   -0.00093966      13
Cr     1.72715578    1.70795329   -0.06660312      14
Co     1.74865544   -0.00268760   -1.78913821      15
Cr    -0.07432232    1.66970217    1.65264352      16
Cr     1.70488571   -0.01741047    1.70367416      17
Co    -0.99645704   -0.97404301   -0.03382458      18
          18
Lattice="  24.8920   0.0000   0.0000   0.0000  24.8920   0.0000   0.0000   0.0000  24.8920 " ConfE="      -5946.1907" DelE="          0.2332"
Co    -3.61525383    0.01745881   -0.03460702       1
Cr     0.03022153   -3.54298205   -0.01602459       2
Cr    -0.04692030    3.54570130   -0.03280732       3
Cr     3.53651019   -0.06230140   -0.04595926       4
Cr    -0.00580491   -0.02980990   -3.54522018       5
Cr    -0.04667735    0.01158169    3.51190929       6
Ni    -0.03119489   -1.75355769   -1.76067876       7
Ni    -1.79227879   -0.00618659    1.72397176       8
Ni    -0.02187857   -1.73331647    1.73652413       9
Co    -1.82438538   -0.00195854   -1.77499419      10
Ni    -0.04602561    1.71069951   -1.72944176      11
Co    -1.76751910    1.77652080    0.01861239      12
Co     1.75856591   -1.72343609    0.00351517      13
Cr     1.75958017    1.74839162   -0.06686502      14
Co     1.74541193    0.00510876   -1.76146139      15
Cr    -0.06341628    1.71685726    1.65602104      16
Cr     1.72987778    0.00723107    1.68761592      17
Co    -1.79285912   -1.74112018   -0.03056584      18
