          23
Lattice="  24.8920   0.0000   0.0000   0.0000  24.8920   0.0000   0.0000   0.0000  24.8920 " ConfE="      -5949.6475" DelE="          0.0000"
Ni    -2.40598002    2.56984734   -0.08751804       1
Ni     2.77322014   -2.63187844   -0.06597223       2
Ni    -0.70588423    2.58790023   -1.86625035       3
Ni     1.04582907   -0.98274035   -3.70258171       4
Ni    -0.76949239    0.83194730   -3.68745646       5
Ni     1.02746252   -2.65491660    1.70699412       6
Ni     1.04824337   -0.92602267    3.55193631       7
Ni     2.77543065   -0.90959215    1.70522407       8
Ni    -2.43888629   -0.86696435   -0.09747066       9
Co    -0.69788996    2.60286697    1.70438068      10
Co    -2.46922420    0.83581265    1.72292142      11
Co     1.10092636   -2.67364473   -1.82346074      12
Cr     2.80899528   -0.89420001   -1.82404099      13
Ni    -0.66696181   -2.60989751   -0.06726517      14
Co    -0.73228425    0.87450790    3.53266947      15
Co    -2.54245468    0.86871872   -1.90425302      16
Cr     0.99017203    2.53604342   -0.05594507      17
Co     2.75242270    0.82472953   -0.08877013      18
Ni     0.00000000    0.00000000    0.00000000      19
Ni    -0.74695336   -0.96703857   -1.98764940      20
Ni     1.08642658    0.90168651    1.84579963      21
Ni     1.05447719    0.80471634   -1.95943721      22
Cr    -0.84820981   -0.92863126    1.89135190      23
          23
Lattice="  24.8920   0.0000   0.0000   0.0000  24.8920   0.0000   0.0000   0.0000  24.8920 " ConfE="      -5949.6396" DelE="          0.0079"
Ni    -2.42309063    2.58059458   -0.08213338       1
Ni     2.78303381   -2.64121703   -0.06506275       2
Ni    -0.70907614    2.59064752   -1.85734386       3
Ni     1.04419484   -0.98124659   -3.69084291       4
Ni    -0.77084542    0.82973670   -3.67022754       5
Ni     1.02650114   -2.64958071    1.70013942       6
Ni     1.05310712   -0.92966676    3.55321380       7
Ni     2.77305162   -0.91090874    1.69678062       8
Ni    -2.46866177   -0.88561038   -0.08652392       9
Co    -0.69537497    2.60209275    1.69747471      10
Co    -2.46934851    0.83028552    1.71620753      11
Co     1.09852102   -2.67277194   -1.81086438      12
Cr     2.80813882   -0.89280821   -1.81176473      13
Ni    -0.67481480   -2.60836296   -0.06042096      14
Co    -0.72916299    0.86802066    3.51990449      15
Co    -2.54333054    0.86177652   -1.88456962      16
Cr     1.00530258    2.55830358   -0.05456048      17
Co     2.76373715    0.82757173   -0.08889530      18
Ni    -0.12809937    0.12460307    0.00464575      19
Ni    -0.74467848   -0.97162253   -1.96592840      20
Ni     1.09331067    0.89318298    1.83087847      21
Ni     1.05572762    0.79890379   -1.93723941      22
Cr    -0.83399168   -0.94045918    1.88716947      23
          23
Lattice="  24.8920   0.0000   0.0000   0.0000  24.8920   0.0000   0.0000   0.0000  24.8920 " ConfE="      -5950.1252" DelE="         -0.4777"
Ni    -2.45998516    2.62159615   -0.08033785       1
Ni     2.79543110   -2.65854870   -0.07216897       2
Ni    -0.71362631    2.61325234   -1.85966902       3
Ni     1.04125431   -0.97073498   -3.64473371       4
Ni    -0.75901459    0.82212663   -3.62225814       5
Ni     1.03769825   -2.67772162    1.68758055       6
Ni     1.03018922   -0.91941166    3.50663563       7
Ni     2.77531284   -0.92105957    1.68203170       8
Ni    -2.50928936   -0.92569073   -0.08013370       9
Co    -0.70329458    2.63202525    1.70430448      10
Co    -2.49812053    0.84213475    1.72168566      11
Co     1.11525472   -2.70917209   -1.81357552      12
Cr     2.84672331   -0.90076425   -1.81999609      13
Ni    -0.67797670   -2.68481579   -0.06077005      14
Co    -0.72447780    0.86588300    3.47766010      15
Co    -2.55986898    0.86877697   -1.87647032      16
Cr     1.05977258    2.65882341   -0.07362025      17
Co     2.78941868    0.82265817   -0.10248675      18
Ni    -0.69622070    0.79550636   -0.08239663      19
Ni    -0.69079278   -0.95230359   -1.82204907      20
Ni     1.02914732    0.83704360    1.66629965      21
Ni     1.04835252    0.78401998   -1.83892519      22
Cr    -0.76926816   -0.90522233    1.70219136      23
