          18
Lattice="  24.8920   0.0000   0.0000   0.0000  24.8920   0.0000   0.0000   0.0000  24.8920 " ConfE="      -5924.1235" DelE="          0.0000"
Ni     0.00897059   -3.45917390   -0.02494791       1
Ni    -0.01273185    0.05327905   -3.51639690       2
Co    -0.04090115    3.59961851    0.04904119       3
Ni    -0.00615389    0.06143409    3.57181816       4
Cr    -3.51366080    0.04481655   -0.01391510       5
Ni     3.54643383    0.05491289    0.02972393       6
Ni    -1.75213550   -1.73535722   -0.02473472       7
Cr     1.80410160   -1.79081114    0.05668799       8
Cr    -1.74950474   -0.02240300   -1.77607439       9
Ni     1.73648648   -0.02504397   -1.73711381      10
Co    -0.02201783   -1.75572845    1.83270678      11
Co    -0.08184550    1.80712441   -1.72139214      12
Cr    -0.02705628    1.83511475    1.78431175      13
Ni    -1.77234548    0.05056282    1.80324708      14
Ni     1.77324290    0.04722017    1.80805448      15
Cr    -1.77051087    1.82951850   -0.01034708      16
Ni     1.72884696    1.81110326    0.01918188      17
Ni     0.00000000    0.00000000    0.00000000      18
          18
Lattice="  24.8920   0.0000   0.0000   0.0000  24.8920   0.0000   0.0000   0.0000  24.8920 " ConfE="      -5923.3726" DelE="          0.7509"
Ni     0.00325160   -3.39456688   -0.01635081       1
Ni    -0.00227267    0.05218777   -3.51826522       2
Co    -0.03898183    3.59421360    0.05044444       3
Ni    -0.00693468    0.04485860    3.58493230       4
Cr    -3.58228149    0.03514307   -0.00288522       5
Ni     3.58331338    0.06784830    0.04199979       6
Ni    -1.93247779   -1.78405067    0.04364603       7
Cr     1.98581159   -1.83894322    0.11474247       8
Cr    -1.83433409   -0.05272788   -1.79730139       9
Ni     1.87815880    0.02111084   -1.77951811      10
Co    -0.01390192   -1.73074963    1.81509090      11
Co    -0.08329980    1.71071948   -1.66002548      12
Cr    -0.03261036    1.74130347    1.71771180      13
Ni    -1.77979192    0.01616059    1.79462541      14
Ni     1.76782500    0.03055263    1.78786144      15
Cr    -1.72637925    1.72413885   -0.01691799      16
Ni     1.72310025    1.77407140    0.01955182      17
Ni     0.05514150   -0.75407376   -0.56914868      18
          18
Lattice="  24.8920   0.0000   0.0000   0.0000  24.8920   0.0000   0.0000   0.0000  24.8920 " ConfE="      -5924.1499" DelE="         -0.0264"
Ni    -0.00470921   -3.51533379    0.01801180       1
Ni    -0.01843061    0.07017439   -3.54730377       2
Co    -0.04300972    3.62605716    0.05339273       3
Ni    -0.00417584    0.05756912    3.58768169       4
Cr    -3.55213121    0.04954799    0.00249110       5
Ni     3.55442237    0.05941052    0.03812326       6
Ni    -1.73841251   -1.69147890    0.00738156       7
Cr     1.76836978   -1.76669044    0.09071059       8
Cr    -1.75530927    0.05475631   -1.71840094       9
Ni     1.73846400    0.01575833   -1.69860064      10
Co     0.01245271   -1.71526740    1.77339273      11
Co    -0.12076698    1.71069183   -1.63492624      12
Cr    -0.02769562    1.81917733    1.77508151      13
Ni    -1.74161086    0.06259983    1.77728597      14
Ni     1.74943399    0.05569001    1.78807445      15
Cr    -1.75318785    1.82159324    0.02502628      16
Ni     1.69009596    1.79136059    0.03699784      17
Ni     0.01363048   -1.71500446   -1.73031577      18
