          18
Lattice="  24.8920   0.0000   0.0000   0.0000  24.8920   0.0000   0.0000   0.0000  24.8920 " ConfE="      -5941.5960" DelE="          0.0000"
Ni     0.00564051    0.02466218    3.50423256       1
Ni    -3.44516437    0.03839384   -0.01636347       2
Ni     0.05476125    0.01101235   -3.61617028       3
Cr     3.56151506   -0.02055826   -0.04472312       4
Cr     0.05377494   -3.55154218   -0.06638681       5
Ni     0.04500273    3.61479813   -0.03277842       6
Co     0.02412541   -1.80654655    1.69427689       7
Ni    -0.00745023    1.80830532    1.74472453       8
Co    -1.69355952   -1.82587684   -0.10867712       9
Co    -1.71563262    1.80445197   -0.04572449      10
Ni     1.79217194    0.02419765    1.75302330      11
Co    -1.70081682    0.00106849   -1.84454998      12
Cr     1.81057167    0.03628159   -1.81557523      13
Cr     1.82020612   -1.80176689   -0.00590824      14
Co     1.78643521    1.81966857   -0.05691003      15
Cr     0.07787338   -1.79512108   -1.81493689      16
Cr     0.04066529    1.79418317   -1.77240019      17
Ni     0.00000000    0.00000000    0.00000000      18
          18
Lattice="  24.8920   0.0000   0.0000   0.0000  24.8920   0.0000   0.0000   0.0000  24.8920 " ConfE="      -5940.7414" DelE="          0.8545"
Ni    -0.00520941    0.03516305    3.48818238       1
Ni    -3.44400539    0.04864775   -0.02211384       2
Ni     0.04627233    0.02969965   -3.62349645       3
Cr     3.57153016   -0.02417975   -0.02877138       4
Cr     0.08798492   -3.60713127   -0.09764876       5
Ni     0.05906734    3.66449704   -0.04104042       6
Co     0.09424367   -1.95401696    1.71471803       7
Ni     0.03550373    1.92331219    1.77235441       8
Co    -1.68787863   -1.98567442   -0.18125006       9
Co    -1.72656713    1.92634381   -0.08961793      10
Ni     1.71083492    0.02103029    1.71467663      11
Co    -1.65201787   -0.00144878   -1.75329273      12
Cr     1.77398538    0.05964641   -1.76214985      13
Cr     1.75413967   -1.75810966   -0.00465698      14
Co     1.72697054    1.77719493   -0.06107058      15
Cr     0.05487842   -1.68714867   -1.74327178      16
Cr    -0.02649159    1.68879271   -1.64095700      17
Ni    -1.08191962   -0.04130373    1.04236729      18
          18
Lattice="  24.8920   0.0000   0.0000   0.0000  24.8920   0.0000   0.0000   0.0000  24.8920 " ConfE="      -5941.1877" DelE="          0.4082"
Ni     0.02931317    0.03098519    3.54166501       1
Ni    -3.49027895    0.04025773   -0.05227423       2
Ni     0.05781807    0.01558865   -3.63736186       3
Cr     3.58263093   -0.02381257   -0.04222484       4
Cr     0.06146533   -3.58055718   -0.07303972       5
Ni     0.05057687    3.63116580   -0.03654949       6
Co     0.05119655   -1.78414741    1.65097503       7
Ni     0.01742147    1.82216080    1.73265389       8
Co    -1.65045562   -1.79353105   -0.11077645       9
Co    -1.67727993    1.80363237   -0.07573979      10
Ni     1.74913939    0.02399201    1.71149084      11
Co    -1.63268139    0.00493910   -1.77877005      12
Cr     1.77038568    0.02611519   -1.76505918      13
Cr     1.79109543   -1.77554305   -0.02249935      14
Co     1.74549699    1.77972133   -0.08115459      15
Cr     0.05801439   -1.74619075   -1.77941558      16
Cr     0.01482895    1.72286260   -1.70745084      17
Ni    -1.70176490    0.03967973    1.67954742      18
