          18
Lattice="  24.8920   0.0000   0.0000   0.0000  24.8920   0.0000   0.0000   0.0000  24.8920 " ConfE="      -5940.8898" DelE="          0.0000"
Cr     0.02781701   -3.53074075    0.00019136       1
Co    -0.03995161   -0.01167836   -3.49945055       2
Ni    -0.00317555    3.61993925    0.03148985       3
Ni    -0.01488626    0.05420223    3.61218971       4
Ni    -3.49663474    0.01931311    0.04366209       5
Co     3.50730932    0.02897115    0.02420018       6
Co    -1.71195558   -1.78124483   -0.02080789       7
Cr     1.71171682   -1.77169529   -0.02884328       8
Cr    -1.69823423   -0.08411592   -1.74504934       9
Cr     1.73636328    0.03238838   -1.78864813      10
Co     0.04066116   -1.81990447    1.77575669      11
Ni    -0.02661989    1.84261845   -1.74892755      12
Cr     0.03533503    1.82854738    1.79117830      13
Co    -1.72282425    0.05786258    1.80308082      14
Ni     1.73272467    0.01535759    1.80663334      15
Ni    -1.75411773    1.81501354    0.04770663      16
Cr     1.78329641    1.82286920   -0.03635188      17
Ni     0.00000000    0.00000000    0.00000000      18
          18
Lattice="  24.8920   0.0000   0.0000   0.0000  24.8920   0.0000   0.0000   0.0000  24.8920 " ConfE="      -5939.6952" DelE="          1.1947"
Cr     0.02767332   -3.44173899    0.00545392       1
Co    -0.01649863   -0.03159439   -3.45004378       2
Ni    -0.00580036    3.51892862    0.05962596       3
Ni    -0.01776746    0.07207688    3.52111852       4
Ni    -3.62404289    0.04449883    0.06882289       5
Co     3.59203435    0.02577388    0.04002620       6
Co    -1.88926908   -1.77599469    0.05482013       7
Cr     1.93570480   -1.85598285    0.12882333       8
Cr    -1.88410200    0.02925151   -1.67688636       9
Cr     2.01252290    0.12523444   -1.83606374      10
Co     0.04767131   -1.72206915    1.69531586      11
Ni     0.01250281    1.69614585   -1.65107255      12
Cr     0.00933028    0.97552889    0.97232741      13
Co    -1.82171873    0.03629784    1.77796375      14
Ni     1.89351255   -0.01726232    1.84990994      15
Ni    -1.89590555    1.83084985    0.02155806      16
Cr     1.90358841    1.80522221   -0.03971202      17
Ni     0.10471871   -0.88877531   -0.90827227      18
          18
Lattice="  24.8920   0.0000   0.0000   0.0000  24.8920   0.0000   0.0000   0.0000  24.8920 " ConfE="      -5941.1219" DelE="         -0.2321"
Cr     0.04241368   -3.58946685    0.03171156       1
Co    -0.02986993    0.03441924   -3.53457835       2
Ni     0.00496895    3.58493408    0.07861088       3
Ni    -0.02218025    0.08656733    3.59409024       4
Ni    -3.50655164    0.03655088    0.06340374       5
Co     3.51597078    0.04512292    0.04987047       6
Co    -1.72883628   -1.76969396    0.03909044       7
Cr     1.74993499   -1.73626833    0.04913173       8
Cr    -1.75016525    0.01057187   -1.68744557       9
Cr     1.77923554    0.09025687   -1.75387758      10
Co     0.05005582   -1.82530221    1.75752842      11
Ni    -0.02459447    1.82973876   -1.74993457      12
Cr    -0.01388705    0.07620402    0.09897910      13
Co    -1.67229168    0.08058549    1.76579373      14
Ni     1.70892829    0.07681791    1.81632135      15
Ni    -1.74579022    1.83659416    0.08410369      16
Cr     1.75075695    1.83473735    0.01755467      17
Ni     0.00748002   -1.75431482   -1.74870448      18
