          24
Lattice="  24.8920   0.0000   0.0000   0.0000  24.8920   0.0000   0.0000   0.0000  24.8920 " ConfE="      -5919.5348" DelE="          0.0000"
Ni     2.42336744   -1.75805852   -2.62102883       1
Co    -2.96292561    1.93943373   -0.92128195       2
Cr    -3.06245326   -1.88270890   -0.98815805       3
Ni     0.58110436    1.99851660    2.74612283       4
Cr     0.57878784   -1.85303149    2.63497323       5
Co     2.53267617    1.88647136    0.93007081       6
Co     2.49117252   -1.84877522    0.97635786       7
Ni    -1.14201996    1.87610801   -2.68182057       8
Cr    -1.21179847   -1.80909565   -2.65614617       9
Ni     0.67043774    3.64854901    0.90308954      10
Cr    -1.21998696    3.62938137   -0.81244663      11
Cr    -1.14096972   -3.65716877   -0.93027125      12
Ni     0.59331734   -3.59580681    1.01064330      13
Cr    -2.92389509    0.07348684    0.91218831      14
Cr    -1.09784917    0.00606446    2.55328034      15
Co     1.29799351    0.05901671    1.76183704      16
Cr     2.40507289   -0.00572928   -0.77405648      17
Ni     0.58259321    0.00215512   -2.55499071      18
Ni     0.70866765    1.98790956   -0.92659326      19
Ni     0.00000000    0.00000000    0.00000000      20
Cr    -1.77343928    0.07089091   -1.24055908      21
Co    -1.19194604    1.89211228    0.86484099      22
Ni    -1.23094895   -1.84761933    0.79905417      23
Ni     0.66661134   -2.00375811   -0.92217201      24
          24
Lattice="  24.8920   0.0000   0.0000   0.0000  24.8920   0.0000   0.0000   0.0000  24.8920 " ConfE="      -5919.3052" DelE="          0.2297"
Ni     2.39890367   -1.79427734   -2.60595191       1
Co    -2.93286573    1.89282113   -0.87971102       2
Cr    -2.90734636   -1.80337192   -0.94299274       3
Ni     0.58839527    2.10679273    2.85721764       4
Cr     0.66010447   -1.91107552    2.69219105       5
Co     2.43406421    1.78869564    0.92247611       6
Co     2.38727100   -1.73093084    0.89438580       7
Ni    -1.12427562    1.87064344   -2.71392824       8
Cr    -1.14417113   -1.78522967   -2.60875818       9
Ni     0.66361688    3.62299693    0.90395382      10
Cr    -1.22402962    3.56185941   -0.78482053      11
Cr    -1.27026177   -3.75448185   -0.85991131      12
Ni     0.51651780   -3.70469200    1.20553667      13
Cr    -2.92529476    0.04701898    0.90378289      14
Cr    -1.23659668    0.05587866    2.68172861      15
Co     0.90379109    0.11858369    1.87423819      16
Cr     2.64750816    0.11085770   -1.01845603      17
Ni     0.64098033    0.03110935   -2.68689312      18
Ni     0.66558270    1.93180698   -0.93206416      19
Ni     0.52670254   -0.28748130   -0.25067019      20
Cr    -1.47696703    0.19540896   -1.07199061      21
Co    -1.04132843    1.70057673    0.92941068      22
Ni    -1.11887468   -1.74454814    0.83832119      23
Ni     0.61044818   -2.41091504   -0.90070258      24
          24
Lattice="  24.8920   0.0000   0.0000   0.0000  24.8920   0.0000   0.0000   0.0000  24.8920 " ConfE="      -5924.0382" DelE="         -4.5033"
Ni     2.43229859   -1.73579712   -2.65997943       1
Co    -2.86868403    1.81074216   -0.87786932       2
Cr    -2.89949115   -1.72156185   -0.94075018       3
Ni     0.67520248    1.79208332    2.68941326       4
Cr     0.68131979   -1.71992791    2.60441528       5
Co     2.45448660    1.81708727    0.89285563       6
Co     2.43217683   -1.75594022    0.89716010       7
Ni    -1.11553791    1.82534417   -2.68541441       8
Cr    -1.16514752   -1.74110258   -2.67446469       9
Ni     0.66990677    3.61084308    0.90346788      10
Cr    -1.21792402    3.53944410   -0.80667959      11
Cr    -1.10550396   -3.52678814   -0.95108134      12
Ni     0.63769448   -5.24257954    2.65419567      13
Cr    -2.92044894    0.05426914    0.89505694      14
Cr    -1.09787636    0.00217267    2.60768348      15
Co     0.66224585    0.03039244    0.89663025      16
Cr     2.44263601    0.03620814   -0.85914681      17
Ni     0.65002421    0.02945971   -2.66947492      18
Ni     0.68045003    1.84395743   -0.88675180      19
Ni     0.62802549   -1.73657103   -0.90170234      20
Cr    -1.12598173    0.16682146   -0.80419164      21
Co    -1.11047606    1.82718015    0.94164928      22
Ni    -1.14120724   -1.74748483    0.85914086      23
Ni     0.61110952   -3.50957470    0.90376559      24
