          18
Lattice="  24.8920   0.0000   0.0000   0.0000  24.8920   0.0000   0.0000   0.0000  24.8920 " ConfE="      -5940.4341" DelE="          0.0000"
Ni     0.02884096   -3.43470982   -0.04487579       1
Co    -0.00135702    0.03768011    3.40946110       2
Cr    -0.00316924    3.62124688   -0.08042312       3
Co     0.03099637    0.06499325   -3.61900005       4
Co    -3.55529559    0.06348364   -0.04535244       5
Co     3.65579954    0.06917845   -0.06597635       6
Cr    -1.70560185   -1.63111749   -0.03672648       7
Cr     1.83181374   -1.68921612   -0.10656770       8
Cr    -1.71358408    0.02755713    1.71906698       9
Ni     1.78908447    0.04592849    1.69591487      10
Co     0.04982883   -1.69255781   -1.84565040      11
Cr     0.00042725    1.87017149    1.72133038      12
Ni     0.00620443    1.81648502   -1.82459768      13
Cr    -1.73369637   -0.00904930   -1.78092080      14
Cr     1.79740089    0.02825773   -1.82784366      15
Co    -1.75564084    1.80631916   -0.03974566      16
Ni     1.81346313    1.83110470   -0.07568896      17
Co     0.00000000    0.00000000    0.00000000      18
          18
Lattice="  24.8920   0.0000   0.0000   0.0000  24.8920   0.0000   0.0000   0.0000  24.8920 " ConfE="      -5940.0943" DelE="          0.3398"
Ni     0.02325242   -3.42805651   -0.05172777       1
Co     0.01533320    0.01902623    3.36714988       2
Cr    -0.00397045    3.63439297   -0.06558441       3
Co     0.03560086    0.06187452   -3.62106670       4
Co    -3.59460125    0.07095844   -0.05695123       5
Co     3.69646885    0.07862843   -0.07480925       6
Cr    -1.91815775   -1.71206059   -0.10333417       7
Cr     1.95306318   -1.71607826   -0.12479857       8
Cr    -1.81036922    0.07412222    1.72490524       9
Ni     1.90622315    0.08665600    1.71103717      10
Co     0.03918585   -1.64120908   -1.77478561      11
Cr    -0.01195194    1.72462248    1.66670855      12
Ni     0.00916454    1.78626142   -1.79332279      13
Cr    -1.66914803   -0.03375194   -1.71188973      14
Cr     1.74879106    0.00358838   -1.78465783      15
Co    -1.73628296    1.77152453   -0.03096135      16
Ni     1.79734693    1.79832294   -0.07341055      17
Co    -0.01095155   -0.91320828    0.77188158      18
          18
Lattice="  24.8920   0.0000   0.0000   0.0000  24.8920   0.0000   0.0000   0.0000  24.8920 " ConfE="      -5940.4332" DelE="          0.0009"
Ni     0.02923636   -3.49300446   -0.07732188       1
Co    -0.00361489    0.07728207    3.46865998       2
Cr     0.00436422    3.66956288   -0.08912963       3
Co     0.03471072    0.07188124   -3.63507760       4
Co    -3.57676377    0.07263486   -0.05494974       5
Co     3.66164552    0.07404975   -0.07455687       6
Cr    -1.68588799   -1.59805708   -0.06935975       7
Cr     1.81414271   -1.67110824   -0.13055197       8
Cr    -1.71663208    0.08884807    1.66216746       9
Ni     1.76598653    0.08431606    1.65418353      10
Co     0.05799203   -1.63895113   -1.78283943      11
Cr    -0.00661069    1.83194551    1.70307379      12
Ni     0.01202849    1.80892544   -1.81503347      13
Cr    -1.69135761    0.00059385   -1.74094389      14
Cr     1.77512871    0.03590262   -1.82206645      15
Co    -1.71057798    1.77525023   -0.03576160      16
Ni     1.78670601    1.82560463   -0.08747136      17
Co     0.00169102   -1.62431967    1.62476521      18
