          18
Lattice="  24.8920   0.0000   0.0000   0.0000  24.8920   0.0000   0.0000   0.0000  24.8920 " ConfE="      -5946.2038" DelE="          0.0000"
Ni    -0.00018926    3.53469083    0.02909339       1
Ni    -0.01179637    0.06839024   -3.48631041       2
Cr    -3.48540974    0.02924635    0.03366390       3
Cr     0.01234545   -3.46847592    0.07782688       4
Cr    -0.04667104   -0.00806856    3.58119376       5
Co     3.53381387    0.01940355    0.02086646       6
Ni    -1.73748632    1.79137801    0.01319599       7
Co    -1.77250771    0.00581467   -1.75744620       8
Co     1.73201575    1.76672170   -0.01698043       9
Cr     1.69417393    0.09711214   -1.70128703      10
Ni    -1.77512911   -1.76119656    0.03439416      11
Ni     1.77030898    0.03442612    1.81299747      12
Cr    -0.05730960    1.71038059    1.82338783      13
Cr     0.00474015   -1.75420550   -1.73280285      14
Co    -1.75278374    0.01244474    1.81431372      15
Co     0.04726709   -1.76733579    1.80166327      16
Cr     1.79052707   -1.72715780    0.01695955      17
Co     0.00000000    0.00000000    0.00000000      18
          18
Lattice="  24.8920   0.0000   0.0000   0.0000  24.8920   0.0000   0.0000   0.0000  24.8920 " ConfE="      -5945.4590" DelE="          0.7448"
Ni     0.00048716    3.49588202    0.02093760       1
Ni    -0.00901123    0.03193143   -3.49193033       2
Cr    -3.57455856    0.00985848    0.04831306       3
Cr    -0.00058834   -3.46985227    0.06306876       4
Cr    -0.04572260    0.00506561    3.59088380       5
Co     3.59193043   -0.00305740    0.04151616       6
Ni    -1.84489346    1.78629926    0.05079206       7
Co    -1.91107234   -0.03971061   -1.78959174       8
Co     1.90748166    1.80882772    0.08799246       9
Cr     1.95445598   -0.01851203   -1.73724895      10
Ni    -1.74671736   -1.70360129    0.02899536      11
Ni     1.76360083    0.03477333    1.78268372      12
Cr    -0.05375781    1.64369914    1.71168612      13
Cr     0.02124993   -1.64242703   -1.66203343      14
Co    -1.72277206    0.03161482    1.79003049      15
Co     0.05421523   -1.74080741    1.76901709      16
Cr     1.74676239   -1.68962205    0.04124541      17
Co     0.09365956    1.02963849   -1.14266715      18
          18
Lattice="  24.8920   0.0000   0.0000   0.0000  24.8920   0.0000   0.0000   0.0000  24.8920 " ConfE="      -5945.8789" DelE="          0.3250"
Ni    -0.00889469    3.55979895    0.04810959       1
Ni    -0.01248025    0.01800814   -3.54913559       2
Cr    -3.53310881    0.01658307    0.04411015       3
Cr     0.00415262   -3.49038385    0.08006421       4
Cr    -0.04579276   -0.00548576    3.60538703       5
Co     3.55178554    0.01159252    0.02760837       6
Ni    -1.74787709    1.75745422    0.03991721       7
Co    -1.75523235   -0.02117444   -1.74039851       8
Co     1.73839833    1.74792773    0.02661402       9
Cr     1.69281475    0.06295235   -1.67234678      10
Ni    -1.74764070   -1.73061552    0.04171003      11
Ni     1.75100474    0.03192378    1.79664214      12
Cr    -0.06400674    1.66906743    1.77905814      13
Cr    -0.00147283   -1.67993933   -1.68248959      14
Co    -1.71568340    0.02033154    1.80128479      15
Co     0.05639759   -1.74773460    1.76913442      16
Cr     1.75191346   -1.71204058    0.03755683      17
Co     0.01723158    1.72305793   -1.72086876      18
