          18
Lattice="  24.8920   0.0000   0.0000   0.0000  24.8920   0.0000   0.0000   0.0000  24.8920 " ConfE="      -5943.1498" DelE="          0.0000"
Ni    -3.52508382   -0.01484330    0.02451934       1
Ni    -0.00895355   -0.03038803   -3.57386944       2
Ni    -0.01951690   -3.59457530   -0.00184767       3
Cr    -0.03052163    3.47464734   -0.01866864       4
Cr     0.07022276   -0.03624845    3.46287096       5
Cr     3.53630471   -0.04022458   -0.01699883       6
Co    -1.72379158   -0.02331112    1.73194239       7
Cr    -0.06697293    1.72819718    1.66311820       8
Cr    -1.75402507   -0.00566758   -1.69639595       9
Ni     1.78467721   -1.83834086   -0.02061142      10
Co    -0.03064948    1.77316431   -1.73256393      11
Co     1.79530714   -0.00170118    1.71105626      12
Cr     1.79476457    1.72736722   -0.01585917      13
Co    -1.76966822   -1.82187314    0.01326946      14
Cr     0.02905795   -1.82257679    1.77130808      15
Cr     1.75763960   -0.03818657   -1.81736091      16
Co    -0.01777492   -1.79017838   -1.76479874      17
Co     0.00000000    0.00000000    0.00000000      18
          18
Lattice="  24.8920   0.0000   0.0000   0.0000  24.8920   0.0000   0.0000   0.0000  24.8920 " ConfE="      -5942.4023" DelE="          0.7475"
Ni    -3.50223205   -0.02781635    0.03391950       1
Ni     0.00797376   -0.04407341   -3.65757717       2
Ni    -0.02445309   -3.58005790    0.00249251       3
Cr    -0.02175967    3.47564807   -0.00389567       4
Cr     0.08718930   -0.07498379    3.55833544       5
Cr     3.53824664   -0.00617721   -0.01859051       6
Co    -1.73213875   -0.08237425    1.85497533       7
Cr     0.01780197    1.73157423    1.84950973       8
Cr    -1.73000524   -0.09211841   -1.85833431       9
Ni     1.74958442   -1.79573628   -0.01709872      10
Co     0.08569814    1.81249723   -1.98294999      11
Co     1.73955752    0.01116134    1.67301243      12
Cr     1.65596179    1.67885564   -0.02900706      13
Co    -1.72033113   -1.74343403    0.02321616      14
Cr    -0.02718675   -1.72761496    1.73861532      15
Cr     1.68494600   -0.02474463   -1.79692200      16
Co    -0.01912417   -1.73040333   -1.74598039      17
Co    -1.00918820    1.07108499   -0.07258864      18
          18
Lattice="  24.8920   0.0000   0.0000   0.0000  24.8920   0.0000   0.0000   0.0000  24.8920 " ConfE="      -5942.8704" DelE="          0.2794"
Ni    -3.56703873   -0.04467902    0.03018331       1
Ni    -0.00394993   -0.04039560   -3.60976660       2
Ni    -0.02125770   -3.59697030    0.00070117       3
Cr     0.00782851    3.54164252   -0.00503636       4
Cr     0.08647733   -0.04869263    3.50892677       5
Cr     3.55955817   -0.03122724   -0.02009361       6
Co    -1.66988413   -0.05637630    1.71146008       7
Cr    -0.02021690    1.69081211    1.67685427       8
Cr    -1.71341318   -0.05712612   -1.70060641       9
Ni     1.75938831   -1.81391199   -0.02102518      10
Co     0.01996548    1.73176605   -1.75325877      11
Co     1.74742405    0.00269941    1.65668620      12
Cr     1.72855644    1.68883714   -0.03483208      13
Co    -1.74866793   -1.78773070    0.00746873      14
Cr     0.01183724   -1.77792714    1.75380150      15
Cr     1.72729995   -0.04413117   -1.80010109      16
Co    -0.01954173   -1.74347530   -1.73699593      17
Co    -1.72007294    1.72344410   -0.01461225      18
