          18
Lattice="  24.8920   0.0000   0.0000   0.0000  24.8920   0.0000   0.0000   0.0000  24.8920 " ConfE="      -5938.0692" DelE="          0.0000"
Ni    -0.04437533   -0.01204804    3.51194671       1
Ni    -0.04662804    3.51033351   -0.04797969       2
Cr    -0.00730830   -3.66714340    0.00201812       3
Cr    -0.02686985   -0.00770959   -3.65379609       4
Co     3.48609932   -0.04304550   -0.06168099       5
Co    -3.52007018   -0.02632619   -0.05888020       6
Ni    -1.78153083    0.01745166    1.75867092       7
Ni    -1.74312394    1.76654295    0.01940258       8
Cr     1.65148260    0.03816004    1.71816679       9
Cr     1.66044345    1.76738536   -0.02288469      10
Ni    -0.05516131   -1.83955550    1.75358832      11
Ni     1.70823435   -0.04794941   -1.81821287      12
Cr    -0.02350616    1.74198755   -1.88557318      13
Cr    -0.05573189   -1.83438293   -1.78512190      14
Cr     1.72586281   -1.88190352   -0.05820856      15
Co    -1.73756718   -1.85051265   -0.09011310      16
Cr    -1.77195436   -0.03960522   -1.76235680      17
Co     0.00000000    0.00000000    0.00000000      18
          18
Lattice="  24.8920   0.0000   0.0000   0.0000  24.8920   0.0000   0.0000   0.0000  24.8920 " ConfE="      -5937.2170" DelE="          0.8522"
Ni    -0.05440701   -0.00298718    3.45812363       1
Ni    -0.05939483    3.47793448   -0.06192291       2
Cr     0.00142212   -3.67593065    0.01902635       3
Cr     0.00068350    0.00112762   -3.65907880       4
Co     3.53038164   -0.06285694   -0.05777966       5
Co    -3.59054849   -0.04486048   -0.07267886       6
Ni    -1.88700076   -0.03180497    1.73116905       7
Ni    -1.91717016    1.78481278   -0.03780197       8
Cr     1.80924105   -0.06556319    1.77305045       9
Cr     1.85564936    1.84162736   -0.14593049      10
Ni    -0.05409209   -1.79029268    1.72059323      11
Ni     1.70513951   -0.04134677   -1.76139823      12
Cr    -0.05074586    1.66027845   -1.79333106      13
Cr    -0.06255108   -1.71712045   -1.70237900      14
Cr     1.71829808   -1.84677568   -0.02919762      15
Co    -1.73204980   -1.82104310   -0.08368802      16
Cr    -1.77671528   -0.04196707   -1.66464887      17
Co     0.09038817    0.99892465    0.87926979      18
          18
Lattice="  24.8920   0.0000   0.0000   0.0000  24.8920   0.0000   0.0000   0.0000  24.8920 " ConfE="      -5937.9360" DelE="          0.1332"
Ni    -0.04650393   -0.04045716    3.53871852       1
Ni    -0.05542367    3.54950938   -0.06926914       2
Cr    -0.00767846   -3.70171149    0.01013878       3
Cr    -0.01981716   -0.00782858   -3.68538568       4
Co     3.49509344   -0.04535878   -0.06956204       5
Co    -3.54438576   -0.03527170   -0.06811655       6
Ni    -1.79159028   -0.02190672    1.71552473       7
Ni    -1.75142637    1.72778417   -0.04184060       8
Cr     1.62319280   -0.00230464    1.65078202       9
Cr     1.63485067    1.74058888   -0.04483086      10
Ni    -0.05496142   -1.81367088    1.72657222      11
Ni     1.64064627   -0.06451167   -1.76117595      12
Cr    -0.02969124    1.72271803   -1.84898896      13
Cr    -0.06859847   -1.84855715   -1.75552344      14
Cr     1.70815440   -1.88038178   -0.05060169      15
Co    -1.70683559   -1.81947190   -0.11244406      16
Cr    -1.72888016   -0.06016934   -1.75269200      17
Co     0.00835985    1.68510520    1.66109702      18
