          18
Lattice="  24.8920   0.0000   0.0000   0.0000  24.8920   0.0000   0.0000   0.0000  24.8920 " ConfE="      -5937.1063" DelE="          0.0000"
Co    -0.01331442   -3.46250478   -0.02305229       1
Co    -0.01213090    0.02956036    3.49430739       2
Ni    -0.02058618    3.59255058   -0.05222539       3
Co     0.03573458    0.07044714   -3.62742985       4
Co    -3.55169493    0.06074100   -0.03850077       5
Co     3.55506878    0.06347941   -0.04194561       6
Ni    -1.75032693   -1.70732114   -0.03556623       7
Cr     1.71071681   -1.69151930    0.04536999       8
Ni    -1.77749166    0.03401459    1.73506228       9
Co     1.70983167    0.00394229    1.71532946      10
Ni     0.00784379   -1.70521805   -1.84380077      11
Co     0.00460218    1.82069787    1.73962384      12
Ni    -0.00732293    1.81088875   -1.80063081      13
Ni    -1.76568284    0.05418471   -1.82760055      14
Co     1.78291530    0.04198254   -1.81068634      15
Co    -1.77923103    1.80436341   -0.00997569      16
Ni     1.77004472    1.82274186   -0.03985317      17
Cr     0.00000000    0.00000000    0.00000000      18
          18
Lattice="  24.8920   0.0000   0.0000   0.0000  24.8920   0.0000   0.0000   0.0000  24.8920 " ConfE="      -5936.4917" DelE="          0.6146"
Co    -0.00911132   -3.39756947    0.00004814       1
Co     0.00896498    0.00983679    3.43745136       2
Ni    -0.02118004    3.60174814   -0.04654290       3
Co     0.04016243    0.06301561   -3.62758425       4
Co    -3.60749162    0.06340414   -0.04394486       5
Co     3.61235661    0.07189350   -0.04044761       6
Ni    -1.85880888   -1.72889376   -0.06058352       7
Cr     1.93556207   -1.75286441   -0.05918245       8
Ni    -1.84429388    0.03431551    1.73411303       9
Co     1.90508238    0.12249620    1.78626690      10
Ni     0.00317479   -1.69051750   -1.79062957      11
Co    -0.00154607    1.77026141    1.71993845      12
Ni    -0.01008857    1.77257659   -1.75870189      13
Ni    -1.76138166    0.04774190   -1.79248682      14
Co     1.75265521    0.00321421   -1.71426093      15
Co    -1.77451672    1.78004329    0.00568501      16
Ni     1.74620822    1.78566447   -0.02235646      17
Cr     0.14262896   -0.64624221    0.62188642      18
          18
Lattice="  24.8920   0.0000   0.0000   0.0000  24.8920   0.0000   0.0000   0.0000  24.8920 " ConfE="      -5937.0958" DelE="          0.0104"
Co    -0.01198239   -3.51618316   -0.04825042       1
Co    -0.01700216    0.05671168    3.54439755       2
Ni    -0.02266053    3.60600164   -0.05262504       3
Co     0.03572344    0.07369404   -3.65222669       4
Co    -3.57899139    0.06567896   -0.05108513       5
Co     3.59068161    0.07803253   -0.04288212       6
Ni    -1.73427950   -1.67615854   -0.06283240       7
Cr     1.76204805   -1.64697653   -0.06331899       8
Ni    -1.77091763    0.04979724    1.70590415       9
Co     1.71057759    0.03143998    1.68709259      10
Ni     0.02160433   -1.66984686   -1.79476098      11
Co    -0.00165510    1.78211943    1.72988445      12
Ni    -0.01161906    1.79464269   -1.77493188      13
Ni    -1.76321193    0.07535695   -1.82662016      14
Co     1.78490009    0.05808772   -1.82236959      15
Co    -1.78531038    1.81656189   -0.00767914      16
Ni     1.75039412    1.80667536   -0.04599490      17
Cr     0.06147925   -1.63388224    1.65687343      18
