          18
Lattice="  24.8920   0.0000   0.0000   0.0000  24.8920   0.0000   0.0000   0.0000  24.8920 " ConfE="      -5946.6436" DelE="          0.0000"
Ni    -0.02857221   -3.47798828   -0.04429263       1
Ni     3.47208885   -0.01832725   -0.03127819       2
Ni    -0.05761824    3.60188526   -0.01728745       3
Cr    -3.63362978    0.07040222   -0.02591086       4
Ni    -0.03445526    0.03743262   -3.59704158       5
Ni    -0.03961535   -0.00080737    3.53102606       6
Co     0.00648136   -1.68818976   -1.77302935       7
Cr     0.02632346   -1.69715724    1.63657914       8
Cr     1.67654045   -0.04368627   -1.71925834       9
Cr     1.76603737   -0.01828019    1.72687145      10
Ni    -1.85547069   -1.71967795   -0.06167275      11
Co     1.74288933    1.82939023   -0.01733850      12
Co    -1.81458751    1.79789823    0.00885575      13
Cr    -1.80245900    0.11526558   -1.75384379      14
Cr    -1.81475970    0.01859056    1.69503285      15
Ni    -0.03123561    1.82538514   -1.79659549      16
Ni    -0.03250333    1.78485561    1.77455968      17
Co     0.00000000    0.00000000    0.00000000      18
          18
Lattice="  24.8920   0.0000   0.0000   0.0000  24.8920   0.0000   0.0000   0.0000  24.8920 " ConfE="      -5946.1333" DelE="          0.5103"
Ni    -0.02139324   -3.47806224   -0.03292454       1
Ni     3.45788633   -0.01428755   -0.03992253       2
Ni    -0.05609823    3.60118407   -0.02114340       3
Cr    -3.64771673    0.05825929   -0.02617685       4
Ni    -0.05640050    0.03795561   -3.62740051       5
Ni    -0.03768794    0.00337026    3.54777200       6
Co    -0.08470701   -1.75380259   -1.89126704       7
Cr    -0.03131791   -1.75316207    1.79018521       8
Cr     1.74715266    0.06886388   -1.93172501       9
Cr     1.88567654    0.07231708    1.88071392      10
Ni    -1.79337055   -1.70861006   -0.03809617      11
Co     1.72347477    1.77484433   -0.02302125      12
Co    -1.78445723    1.74676259    0.00777635      13
Cr    -1.75211132    0.08144009   -1.69536996      14
Cr    -1.76305866    0.01591783    1.64077297      15
Ni    -0.03478537    1.80132244   -1.78634488      16
Ni    -0.01288209    1.74332106    1.75076074      17
Co     0.85705503   -0.72929504    0.00016680      18
          18
Lattice="  24.8920   0.0000   0.0000   0.0000  24.8920   0.0000   0.0000   0.0000  24.8920 " ConfE="      -5946.5410" DelE="          0.1027"
Ni    -0.05418226   -3.52428028   -0.04357606       1
Ni     3.52780238    0.02651468   -0.01972304       2
Ni    -0.06170028    3.61771681   -0.01846112       3
Cr    -3.66272281    0.06990481   -0.02746695       4
Ni    -0.04011945    0.04720443   -3.60503709       5
Ni    -0.04549357    0.00715056    3.54301336       6
Co    -0.03043007   -1.65302156   -1.76565444       7
Cr     0.00186681   -1.67193915    1.64072914       8
Cr     1.64853815    0.01587367   -1.70136922       9
Cr     1.71165350    0.04994064    1.70603951      10
Ni    -1.81809839   -1.70281109   -0.05539617      11
Co     1.71840268    1.78587810   -0.01480895      12
Co    -1.80993356    1.77376716    0.00641212      13
Cr    -1.77298833    0.12748124   -1.69053297      14
Cr    -1.76511775    0.02643919    1.63353213      15
Ni    -0.03746134    1.81916109   -1.77909505      16
Ni    -0.04226436    1.77340227    1.75052658      17
Co     1.68882421   -1.68431171   -0.01026154      18
