          18
Lattice="  24.8920   0.0000   0.0000   0.0000  24.8920   0.0000   0.0000   0.0000  24.8920 " ConfE="      -5945.1582" DelE="          0.0000"
Ni     0.02477713    3.41610228    0.02585247       1
Co     0.03768092   -0.11074282    3.57131139       2
Cr     0.00567788   -3.68093383    0.00474264       3
Co     0.01017157   -0.09649126   -3.54542791       4
Co     3.58371743   -0.06924643    0.02140518       5
Cr    -3.51100236   -0.13054013    0.00580063       6
Ni     1.77219591   -0.06227029    1.78578379       7
Ni    -1.71639190   -0.08281671    1.79036152       8
Ni     0.04531519   -1.88175046    1.78467784       9
Cr     1.75303235    1.63696611    0.05582752      10
Co    -1.67813863    1.64160650    0.00589874      11
Ni     1.79228829   -0.09057286   -1.75444729      12
Ni     1.82299309   -1.86502619    0.02365059      13
Ni    -1.73108554   -1.85201637    0.01704602      14
Cr     0.01612444    1.67175967   -1.80154546      15
Co     0.02960484   -1.86776140   -1.76504592      16
Co    -1.73922535   -0.10432807   -1.77346585      17
Cr     0.00000000    0.00000000    0.00000000      18
          18
Lattice="  24.8920   0.0000   0.0000   0.0000  24.8920   0.0000   0.0000   0.0000  24.8920 " ConfE="      -5944.3120" DelE="          0.8462"
Ni     0.01463529    3.37502410    0.02611057       1
Co     0.04139621   -0.07353265    3.49800816       2
Cr     0.01159051   -3.63772786    0.01317316       3
Co     0.01162922   -0.08704894   -3.55154866       4
Co     3.65241057   -0.08390899    0.00641291       5
Cr    -3.61694894   -0.17887575   -0.01481601       6
Ni     1.94575783   -0.12652259    1.83065937       7
Ni    -1.85038634   -0.13480034    1.80391391       8
Ni     0.05476109   -1.80285391    1.75430095       9
Cr     1.88507335    1.65169633    0.03758582      10
Co    -1.83250888    1.65855151   -0.01911320      11
Ni     1.75340694   -0.06201865   -1.69416765      12
Ni     1.83318585   -1.83769402    0.03114294      13
Ni    -1.71110914   -1.79352465    0.01343766      14
Cr    -0.02113517    1.62390896   -1.73769213      15
Co     0.03146917   -1.83688633   -1.74404885      16
Co    -1.70609631   -0.07141814   -1.72957017      17
Cr     0.05185393    0.83689038    0.90685305      18
          18
Lattice="  24.8920   0.0000   0.0000   0.0000  24.8920   0.0000   0.0000   0.0000  24.8920 " ConfE="      -5945.0017" DelE="          0.1565"
Ni     0.02484386    3.47010563    0.01558769       1
Co     0.04748818   -0.11923574    3.59549578       2
Cr     0.00810129   -3.66916127    0.00631479       3
Co     0.01434216   -0.09238723   -3.57220059       4
Co     3.62039795   -0.08988601    0.00765394       5
Cr    -3.55126342   -0.15146042   -0.00109045       6
Ni     1.80569560   -0.10099105    1.77859383       7
Ni    -1.71666267   -0.10671122    1.76497095       8
Ni     0.05332162   -1.84595940    1.76520120       9
Cr     1.73965611    1.59205462    0.02980381      10
Co    -1.66227456    1.61541193   -0.01207735      11
Ni     1.75824065   -0.09820300   -1.72763543      12
Ni     1.83203121   -1.87142881    0.01454383      13
Ni    -1.70635982   -1.82194187    0.00550807      14
Cr    -0.00509683    1.59702474   -1.65817742      15
Co     0.02899335   -1.86052649   -1.75966750      16
Co    -1.71101133   -0.09948160   -1.76316749      17
Cr     0.04327586    1.62006864    1.72882429      18
