          18
Lattice="  24.8920   0.0000   0.0000   0.0000  24.8920   0.0000   0.0000   0.0000  24.8920 " ConfE="      -5943.2193" DelE="          0.0000"
Ni     0.02760763    3.58830533    0.04655297       1
Ni    -0.00090700    0.07564095    3.58227578       2
Cr     3.55266069    0.09962062    0.02837472       3
Cr     0.08010276    0.01614863   -3.45951498       4
Co    -3.55925048    0.04134221    0.04485413       5
Co    -0.03175236   -3.45094724    0.05250076       6
Ni     0.05012286    1.82035815   -1.66897017       7
Ni     0.00651217    1.81276124    1.75770991       8
Ni     1.77861696    0.11075384    1.74529037       9
Co     1.79663578    0.08003612   -1.65904932      10
Co    -1.82598707    1.78853879    0.05021859      11
Co    -1.77246637    0.04740065   -1.75065174      12
Co     0.01772008   -1.70946301   -1.71457528      13
Cr    -1.74956678   -1.66266434    0.06486412      14
Co     1.77329124   -1.72854840    0.08229339      15
Co    -1.80618647    0.06513957    1.80473939      16
Co    -0.01090313   -1.70485809    1.80269466      17
Cr     0.00000000    0.00000000    0.00000000      18
          18
Lattice="  24.8920   0.0000   0.0000   0.0000  24.8920   0.0000   0.0000   0.0000  24.8920 " ConfE="      -5941.8173" DelE="          1.4019"
Ni     0.02682524    3.53457366    0.05657444       1
Ni    -0.02456671    0.04204729    3.66017478       2
Cr     3.53300328    0.07286381    0.04441784       3
Cr     0.05227519   -0.00679980   -3.57687744       4
Co    -3.54617138    0.06477971    0.04399640       5
Co    -0.01619399   -3.45451708    0.05438581       6
Ni    -0.01431420    1.86069323   -1.85212197       7
Ni    -0.05402838    1.82482913    1.94906343       8
Ni     1.77206227    0.01969212    1.93671842       9
Co     1.78581274    0.05490909   -1.81097819      10
Co    -1.70752362    1.75062574    0.05496442      11
Co    -1.70986238    0.06150319   -1.72123326      12
Co     0.02108708   -1.64618382   -1.66390146      13
Cr    -1.62371204   -1.56464862    0.05210691      14
Co     1.75040392   -1.61528094    0.08004135      15
Co    -1.77645369    0.05864988    1.78839245      16
Co    -0.03245832   -1.67295305    1.76545849      17
Cr     0.95913234    0.99726280    0.04427743      18
          18
Lattice="  24.8920   0.0000   0.0000   0.0000  24.8920   0.0000   0.0000   0.0000  24.8920 " ConfE="      -5942.8062" DelE="          0.4131"
Ni     0.01649133    3.60520513    0.04816741       1
Ni    -0.01245854    0.06367381    3.59859664       2
Cr     3.62232008   -0.02555704    0.05733812       3
Cr     0.07456024    0.00973640   -3.50195423       4
Co    -3.58927905    0.04027419    0.04355201       5
Co    -0.03344278   -3.49299561    0.05080112       6
Ni     0.00178300    1.77394561   -1.66210877       7
Ni    -0.00267463    1.78411381    1.74378953       8
Ni     1.74281777    0.05730660    1.75900703       9
Co     1.77937889    0.05380634   -1.67358962      10
Co    -1.80837898    1.77040442    0.05394546      11
Co    -1.75545688    0.03159110   -1.71651127      12
Co     0.00184174   -1.67598355   -1.66687256      13
Cr    -1.65287075   -1.59379887    0.05320534      14
Co     1.75312093   -1.69064021    0.07159613      15
Co    -1.80089253    0.04553658    1.76931397      16
Co    -0.04037630   -1.70103187    1.75820701      17
Cr     1.84449447    1.75691110   -0.00391560      18
