          18
Lattice="  24.8920   0.0000   0.0000   0.0000  24.8920   0.0000   0.0000   0.0000  24.8920 " ConfE="      -5949.7729" DelE="          0.0000"
Ni     0.00756640   -0.00556853    3.43352326       1
Co     3.50324472    0.01915973   -0.04734407       2
Co     0.00587055    0.00473178   -3.60576828       3
Co    -3.61810935   -0.05613474   -0.03689800       4
Cr    -0.00493249   -3.54915124   -0.05217998       5
Cr    -0.03722494    3.55416310   -0.03835105       6
Cr     0.00878918   -1.75195232    1.67382325       7
Cr     0.03754350    1.74397359    1.67660290       8
Co     1.73290412   -1.73182106   -0.02425462       9
Co     1.73329005    1.73977205    0.01066774      10
Co    -1.83860558    0.00298256    1.73829975      11
Cr     1.75045874   -0.01464692   -1.80139419      12
Co    -1.80325472   -0.01712675   -1.84966934      13
Ni    -1.81142854   -1.75520058   -0.04578072      14
Ni    -1.82844819    1.74825307   -0.04951771      15
Ni    -0.03053381   -1.75481049   -1.83307650      16
Co    -0.02372352    1.75140471   -1.78513037      17
Co     0.00000000    0.00000000    0.00000000      18
          18
Lattice="  24.8920   0.0000   0.0000   0.0000  24.8920   0.0000   0.0000   0.0000  24.8920 " ConfE="      -5949.3788" DelE="          0.3941"
Ni     0.00029598   -0.00767862    3.41282238       1
Co     3.46249764    0.01439092   -0.04332160       2
Co     0.01199206    0.00292624   -3.60163622       3
Co    -3.61565918   -0.06513266   -0.03013582       4
Cr    -0.01788955   -3.61626620   -0.06611927       5
Cr    -0.04965268    3.60809397   -0.05321506       6
Cr    -0.04470195   -1.91594469    1.73124991       7
Cr    -0.04464521    1.92796132    1.75767146       8
Co     1.75631634   -1.86030957   -0.07092020       9
Co     1.76470006    1.87138923   -0.02960448      10
Co    -1.79710799   -0.00389153    1.71638981      11
Cr     1.68482048    0.00288769   -1.70183949      12
Co    -1.77317626   -0.01958925   -1.82166958      13
Ni    -1.77234951   -1.74675663   -0.03537802      14
Ni    -1.79080018    1.73872143   -0.02962575      15
Ni    -0.02569450   -1.75201459   -1.80321149      16
Co    -0.00859226    1.72198835   -1.73989378      17
Co     0.58272946    0.00944737    0.72821556      18
          18
Lattice="  24.8920   0.0000   0.0000   0.0000  24.8920   0.0000   0.0000   0.0000  24.8920 " ConfE="      -5949.8379" DelE="         -0.0650"
Ni    -0.04252297   -0.01281527    3.49448236       1
Co     3.53216253    0.01276297   -0.07695101       2
Co     0.00933111    0.00517120   -3.61981266       3
Co    -3.62615981   -0.06660462   -0.03612084       4
Cr    -0.01482625   -3.58951376   -0.06272941       5
Cr    -0.04847085    3.58280295   -0.04039416       6
Cr    -0.03588313   -1.75437006    1.66803685       7
Cr    -0.02534156    1.73750096    1.65767451       8
Co     1.70474461   -1.73527733   -0.06921178       9
Co     1.69211577    1.74126676   -0.04125470      10
Co    -1.78848088   -0.00609045    1.70948764      11
Cr     1.71134440    0.00195874   -1.73897564      12
Co    -1.80041746   -0.02616714   -1.85719859      13
Ni    -1.78311186   -1.73741603   -0.05087924      14
Ni    -1.80481834    1.72229188   -0.05757138      15
Ni    -0.03394503   -1.73021923   -1.81344072      16
Co    -0.02526635    1.71210683   -1.76425002      17
Co     1.67207009   -0.00763578    1.66391316      18
