          18
Lattice="  24.8920   0.0000   0.0000   0.0000  24.8920   0.0000   0.0000   0.0000  24.8920 " ConfE="      -5934.5982" DelE="          0.0000"
Ni     3.52410071    0.03872444   -0.07171564       1
Ni     0.08684124    0.03724689   -3.53399174       2
Ni     0.01557377    0.07238293    3.53877427       3
Ni    -3.52911328    0.05797690   -0.01894625       4
Ni     0.03927447    3.59912776   -0.03759569       5
Cr     0.07582416   -3.53399349   -0.02442016       6
Ni     1.79277865   -1.71612629   -0.06495374       7
Ni     0.07220752   -1.72345783   -1.80387097       8
Ni     1.80783837    1.80338809   -0.04516475       9
Ni     0.06516269    1.81370080   -1.78760878      10
Ni     0.02319713    1.82297511    1.74761258      11
Cr     0.03132676   -1.72619098    1.75091036      12
Cr    -1.70695205   -1.67177314   -0.05119343      13
Co     1.77894401    0.05741151    1.78553237      14
Co    -1.76856190    0.00810845   -1.76477135      15
Cr    -1.74946545    0.04780360    1.72500244      16
Co    -1.76150451    1.83657759   -0.01712518      17
Co     0.00000000    0.00000000    0.00000000      18
          18
Lattice="  24.8920   0.0000   0.0000   0.0000  24.8920   0.0000   0.0000   0.0000  24.8920 " ConfE="      -5933.1542" DelE="          1.4440"
Ni     3.49522780    0.04234197   -0.06852332       1
Ni     0.06362901    0.02477956   -3.50270295       2
Ni     0.02451066    0.08249161    3.54236761       3
Ni    -3.53525096    0.06102942   -0.02720129       4
Ni     0.02179702    3.65006499   -0.01097831       5
Cr     0.07828516   -3.65810602   -0.00018314       6
Ni     1.80623529   -1.85215648   -0.03113140       7
Ni     0.01247216   -1.89564119   -1.80890972       8
Ni     1.82901769    1.95011218    0.01926345       9
Ni    -0.02450935    2.00341089   -1.80177842      10
Ni     0.02219060    1.81336655    1.71782923      11
Cr     0.06168442   -1.63860723    1.65749699      12
Cr    -1.61932060   -1.56411724   -0.06226763      13
Co     1.72403771    0.04738732    1.69029153      14
Co    -1.66853825    0.02328898   -1.71181751      15
Cr    -1.71323157    0.07076068    1.68917958      16
Co    -1.74630156    1.82528911   -0.00380927      17
Co     1.08569786    0.08024412   -1.15169866      18
          18
Lattice="  24.8920   0.0000   0.0000   0.0000  24.8920   0.0000   0.0000   0.0000  24.8920 " ConfE="      -5934.0032" DelE="          0.5950"
Ni     3.55875602    0.04259063   -0.02530373       1
Ni     0.03624463    0.03704210   -3.56967392       2
Ni     0.01357336    0.07545489    3.55631161       3
Ni    -3.54592249    0.05823254   -0.01400117       4
Ni     0.03264839    3.60659533   -0.03246100       5
Cr     0.07881176   -3.58052897   -0.01162695       6
Ni     1.75486407   -1.70160926   -0.03343147       7
Ni     0.03968063   -1.71243736   -1.77339609       8
Ni     1.79124463    1.79751212   -0.02802184       9
Ni     0.04277784    1.81275089   -1.77486864      10
Ni     0.01459886    1.79593986    1.73154840      11
Cr     0.02278894   -1.69673336    1.74314951      12
Cr    -1.67232227   -1.61069217   -0.03505360      13
Co     1.73711659    0.04529829    1.74846791      14
Co    -1.72793569    0.01217849   -1.71516358      15
Cr    -1.72084588    0.05492950    1.69671920      16
Co    -1.74742782    1.80962368   -0.00252647      17
Co     1.82104958    0.03923535   -1.82844563      18
