          18
Lattice="  24.8920   0.0000   0.0000   0.0000  24.8920   0.0000   0.0000   0.0000  24.8920 " ConfE="      -5940.1712" DelE="          0.0000"
Cr    -0.05092924   -0.03347418    3.42737635       1
Ni    -0.00909946   -3.52406451   -0.10137474       2
Co     0.01068092    0.04369051   -3.68174550       3
Ni     0.01129948    3.55256960   -0.11457623       4
Co    -3.57701965    0.01163220   -0.08796746       5
Co     3.57977067    0.01108290   -0.09724440       6
Cr    -1.73117896   -0.08094525    1.74981391       7
Cr     1.71251556   -0.02336858    1.67914113       8
Ni    -1.75011432   -1.74464801   -0.07059290       9
Ni     1.77580694   -1.75357956   -0.08881552      10
Ni    -0.03456487    1.82766384    1.70188915      11
Ni    -0.02488953   -1.74722242   -1.90756328      12
Co     0.01146435    1.76385224   -1.85025775      13
Ni    -1.77424970    1.75896489   -0.10771004      14
Cr     1.75143651    1.75671733   -0.06962372      15
Cr    -1.80327769   -0.01312803   -1.88569922      16
Ni     1.75974041   -0.00202624   -1.86323993      17
Co     0.00000000    0.00000000    0.00000000      18
          18
Lattice="  24.8920   0.0000   0.0000   0.0000  24.8920   0.0000   0.0000   0.0000  24.8920 " ConfE="      -5939.7825" DelE="          0.3888"
Cr    -0.08261617   -0.02006407    3.45889216       1
Ni    -0.02006743   -3.49019900   -0.09623907       2
Co     0.01029821    0.03878293   -3.67765912       3
Ni     0.00842658    3.54395144   -0.10454417       4
Co    -3.63591202    0.02751175   -0.08860975       5
Co     3.63500250    0.03597117   -0.12606448       6
Cr    -1.94545097   -0.02954769    1.81860704       7
Cr     1.97125880    0.02733322    1.68872891       8
Ni    -1.85332696   -1.74692920   -0.12541235       9
Ni     1.86793527   -1.76806638   -0.12647185      10
Ni    -0.03381957    1.74607334    1.68427060      11
Ni    -0.02981725   -1.72068784   -1.86083467      12
Co     0.01287846    1.72777463   -1.81058818      13
Ni    -1.75630802    1.70285289   -0.09510336      14
Cr     1.69687771    1.68526822   -0.05215155      15
Cr    -1.81064728   -0.02199313   -1.87803416      16
Ni     1.75448455   -0.00421910   -1.83296376      17
Co     0.00212352   -0.69703847    0.92964518      18
          18
Lattice="  24.8920   0.0000   0.0000   0.0000  24.8920   0.0000   0.0000   0.0000  24.8920 " ConfE="      -5940.2853" DelE="         -0.1140"
Cr    -0.07081709    0.03029100    3.51309054       1
Ni    -0.01130161   -3.53567607   -0.12293729       2
Co     0.00898588    0.04431499   -3.69557651       3
Ni     0.01063395    3.55753343   -0.11631437       4
Co    -3.59912203    0.01756049   -0.09144415       5
Co     3.59824996    0.02024432   -0.11051004       6
Cr    -1.75524125   -0.06430956    1.74955426       7
Cr     1.73793276    0.00567914    1.65580466       8
Ni    -1.74140019   -1.70025318   -0.10489371       9
Ni     1.76969748   -1.72586007   -0.11312673      10
Ni    -0.02992956    1.75542501    1.66308932      11
Ni    -0.03012950   -1.72621384   -1.89238502      12
Co     0.01643046    1.74119580   -1.83262212      13
Ni    -1.74501876    1.71258428   -0.11886526      14
Cr     1.72664642    1.73310905   -0.08368418      15
Cr    -1.81360353   -0.01437514   -1.90404880      16
Ni     1.74906112    0.00335610   -1.85568281      17
Co     0.01645914   -1.65435334    1.67247254      18
