          18
Lattice="  24.8920   0.0000   0.0000   0.0000  24.8920   0.0000   0.0000   0.0000  24.8920 " ConfE="      -5946.9769" DelE="          0.0000"
Ni    -0.00100455   -0.09313691    3.58508810       1
Cr     0.02537394    3.44588452    0.02898935       2
Co     3.50145720   -0.02302535    0.03374419       3
Ni    -0.03854989   -0.04789834   -3.54715099       4
Cr    -3.63637189   -0.04271033    0.00551359       5
Co    -0.02362153   -3.59585531   -0.00186882       6
Ni     0.02752935    1.69211556    1.78719963       7
Co     1.73692971   -0.10327782    1.76084587       8
Cr     0.04501382    1.70220792   -1.70067428       9
Co     1.75458648   -0.02134417   -1.72525120      10
Ni    -1.79848981   -0.05457652   -1.75294836      11
Ni    -1.80215384   -1.81864477    0.03404167      12
Cr    -1.78929000   -0.05247831    1.80150218      13
Cr    -1.84633213    1.72822394    0.06215120      14
Cr     0.03451969   -1.82887986    1.77273854      15
Cr     1.77900842   -1.79800150    0.05031686      16
Cr     0.03234138   -1.81161260   -1.71803281      17
Co     0.00000000    0.00000000    0.00000000      18
          18
Lattice="  24.8920   0.0000   0.0000   0.0000  24.8920   0.0000   0.0000   0.0000  24.8920 " ConfE="      -5946.2149" DelE="          0.7620"
Ni    -0.02197641   -0.10660866    3.66126356       1
Cr    -0.00798544    3.44379164    0.03863973       2
Co     3.45791225   -0.01630002    0.02993483       3
Ni    -0.05094034   -0.06176400   -3.59654264       4
Cr    -3.63866052   -0.02440395    0.02486299       5
Co    -0.02505221   -3.58013466   -0.01211087       6
Ni    -0.08421471    1.69957222    1.97540551       7
Co     1.72305238   -0.13201430    1.88476071       8
Cr    -0.04189036    1.69109687   -1.82129408       9
Co     1.77659521   -0.07986331   -1.87131988      10
Ni    -1.76714746   -0.06201523   -1.73147992      11
Ni    -1.77173142   -1.78030009    0.04039388      12
Cr    -1.75773058   -0.04571044    1.79324424      13
Cr    -1.71840836    1.66068191    0.05253902      14
Cr     0.02835959   -1.76506937    1.75609698      15
Cr     1.69635730   -1.65867975    0.04900802      16
Cr     0.06126015   -1.71442278   -1.67647557      17
Co     1.04860385    1.08655896    0.01648930      18
          18
Lattice="  24.8920   0.0000   0.0000   0.0000  24.8920   0.0000   0.0000   0.0000  24.8920 " ConfE="      -5946.8836" DelE="          0.0932"
Ni    -0.00754083   -0.10233386    3.60347775       1
Cr    -0.05544569    3.49864514    0.03508940       2
Co     3.54875781   -0.05584849    0.02875385       3
Ni    -0.04359919   -0.05159535   -3.56556187       4
Cr    -3.65953366   -0.04687411    0.00421974       5
Co    -0.02913608   -3.60887849   -0.00972189       6
Ni    -0.01150405    1.64587587    1.77791818       7
Co     1.70307831   -0.12751331    1.74235686       8
Cr     0.01885016    1.64727965   -1.67267265       9
Co     1.73013246   -0.06103856   -1.72017730      10
Ni    -1.77528578   -0.05931129   -1.72837267      11
Ni    -1.77701468   -1.79338056    0.03778148      12
Cr    -1.78170186   -0.05869345    1.78804500      13
Cr    -1.78734221    1.68419177    0.04907275      14
Cr     0.02832878   -1.80071761    1.73920110      15
Cr     1.73202793   -1.74415916    0.05457479      16
Cr     0.04719710   -1.74714341   -1.66320461      17
Co     1.71729619    1.69299742    0.00871171      18
