          18
Lattice="  24.8920   0.0000   0.0000   0.0000  24.8920   0.0000   0.0000   0.0000  24.8920 " ConfE="      -5940.1928" DelE="          0.0000"
Ni    -0.02231502   -0.00344793    3.53548580       1
Ni    -3.47938614   -0.00858363    0.01849801       2
Ni     0.03598670    0.01425265   -3.58723528       3
Ni     0.01669543   -3.57773153   -0.00132671       4
Cr     0.04050524    3.60961472    0.02103552       5
Cr     3.54831839   -0.00844343   -0.03162113       6
Ni    -0.03945121    1.74899625    1.77106061       7
Co    -1.74335558    1.79108556   -0.03388078       8
Co     0.02196255   -1.76843314    1.74856203       9
Co    -1.72863244   -1.79663566   -0.00150994      10
Cr     1.76547643    0.03786383    1.73883621      11
Cr     1.76541038    1.76937825   -0.01195777      12
Cr    -1.70035280   -0.01943802   -1.74624484      13
Co     0.02850912    1.80628455   -1.77452423      14
Co     1.79267533    0.02953649   -1.78850547      15
Cr     1.73374959   -1.75213211    0.00868612      16
Co     0.03407345   -1.78231658   -1.79553450      17
Co     0.00000000    0.00000000    0.00000000      18
          18
Lattice="  24.8920   0.0000   0.0000   0.0000  24.8920   0.0000   0.0000   0.0000  24.8920 " ConfE="      -5938.9349" DelE="          1.2579"
Ni    -0.00295536    0.00073169    3.54634813       1
Ni    -3.46529261    0.01465702   -0.01539162       2
Ni     0.02444735    0.01612248   -3.60800544       3
Ni     0.05662924   -3.61926137   -0.00919298       4
Cr     0.18188707    3.65434688    0.03590586       5
Cr     3.49039551    0.06446119   -0.02029117       6
Ni     0.02573535    1.87573452    1.87248579       7
Co    -1.65834437    1.91797000   -0.09140385       8
Co     0.12887862   -1.84160121    1.72301900       9
Co    -1.72255587   -1.92961439   -0.06862567      10
Cr     1.74932685    0.02238341    1.82987578      11
Cr     0.99585255    1.02698767   -0.07716584      12
Cr    -1.45426175   -0.05919418   -1.49177464      13
Co     0.01082134    1.85806020   -1.90969407      14
Co     1.81834375    0.01123732   -1.91263095      15
Cr     1.71894722   -1.69619255   -0.00142779      16
Co     0.09282784   -1.75628531   -1.75201198      17
Co    -1.21624197   -0.02444018    1.18156742      18
          18
Lattice="  24.8920   0.0000   0.0000   0.0000  24.8920   0.0000   0.0000   0.0000  24.8920 " ConfE="      -5939.9414" DelE="          0.2514"
Ni     0.02612365   -0.00105056    3.53501516       1
Ni    -3.52201899   -0.00335152   -0.01531497       2
Ni     0.04303810    0.02235156   -3.56920012       3
Ni     0.03032756   -3.58542719   -0.00429607       4
Cr     0.15786314    3.60869579    0.03422912       5
Cr     3.47078038    0.05637450   -0.05496842       6
Ni     0.05182487    1.77878640    1.72350108       7
Co    -1.75002052    1.81880459   -0.05161345       8
Co     0.06654670   -1.78321339    1.73798293       9
Co    -1.71742146   -1.80980168   -0.03085145      10
Cr     1.77542741    0.07450294    1.68449750      11
Cr     0.10625795    0.01381452   -0.07507352      12
Cr    -1.69160038   -0.00732253   -1.72739364      13
Co     0.06948602    1.83291629   -1.73901241      14
Co     1.79486810    0.06599406   -1.75568611      15
Cr     1.80005816   -1.81050764   -0.01680413      16
Co     0.05358026   -1.79366306   -1.80033024      17
Co    -1.67229680    0.00274196    1.66905685      18
