          18
Lattice="  24.8920   0.0000   0.0000   0.0000  24.8920   0.0000   0.0000   0.0000  24.8920 " ConfE="      -5938.3763" DelE="          0.0000"
Ni    -3.45412127    0.02238162   -0.02481838       1
Co    -0.00334357    0.00098757   -3.51762228       2
Cr    -0.00252481   -3.60336246   -0.02423075       3
Co    -0.00262434    3.55051556   -0.00794752       4
Co     0.02351121   -0.02227634    3.57769117       5
Cr     3.53262935    0.01646817    0.01703167       6
Ni    -0.01698080   -1.76377892   -1.75314867       7
Ni    -1.74217713   -1.77033367    0.00253384       8
Co    -0.04831961    1.75401570   -1.74945483       9
Ni    -1.74034771    0.01175495    1.79866519      10
Cr    -1.66013305    1.81176060   -0.05756362      11
Ni     1.77662429   -1.77908079    0.01445466      12
Cr     1.75159318    0.03565994   -1.78772793      13
Co     0.03445879   -1.77640920    1.81860720      14
Co     1.76501257    1.78167560    0.01497486      15
Co     0.00464200    1.76748092    1.77641214      16
Cr     1.77793927    0.05073772    1.79854485      17
Ni     0.00000000    0.00000000    0.00000000      18
          18
Lattice="  24.8920   0.0000   0.0000   0.0000  24.8920   0.0000   0.0000   0.0000  24.8920 " ConfE="      -5937.0610" DelE="          1.3153"
Ni    -3.42718201    0.00621307   -0.02351918       1
Co    -0.03302496    0.00221607   -3.54566507       2
Cr     0.14112322   -3.57362673    0.01617912       3
Co     0.03597170    3.57225317   -0.00469076       4
Co     0.00796041    0.02122095    3.61019601       5
Cr     3.48722222   -0.06667815    0.02050401       6
Ni     0.00043972   -1.90944301   -1.86656257       7
Ni    -1.72535565   -1.94413921    0.06906992       8
Co     0.10939933    1.88787059   -1.85731309       9
Ni    -1.68121137    0.00850544    1.71030698      10
Cr    -1.65101100    1.97472424    0.05179180      11
Ni     1.13078591   -1.05295943    0.04482338      12
Cr     1.64759024    0.09123636   -1.92677199      13
Co    -0.02110575   -1.81066671    1.95213867      14
Co     1.73694602    1.70747792    0.00356628      15
Co     0.03227674    1.73040168    1.71808035      16
Cr     1.74443244    0.11012355    1.95899386      17
Ni    -1.04855461    0.03621294   -1.00189460      18
          18
Lattice="  24.8920   0.0000   0.0000   0.0000  24.8920   0.0000   0.0000   0.0000  24.8920 " ConfE="      -5937.7904" DelE="          0.5859"
Ni    -3.48824607    0.00557010    0.00836401       1
Co     0.01345107    0.00872643   -3.61843269       2
Cr     0.14414696   -3.49974398    0.00400252       3
Co     0.02217254    3.55161751   -0.01282464       4
Co     0.01718317    0.01644805    3.62121569       5
Cr     3.38678297   -0.12970169    0.01019201       6
Ni    -0.01151122   -1.81459216   -1.89243361       7
Ni    -1.64710174   -1.74057785    0.02084175       8
Co     0.03709595    1.71461806   -1.73845015       9
Ni    -1.71448123    0.00708146    1.77982950      10
Cr    -1.56833248    1.73581424   -0.00584512      11
Ni     0.87801658   -0.82671437    0.04154316      12
Cr     1.73199625    0.05964146   -1.94887078      13
Co     0.00257929   -1.80803523    1.99581488      14
Co     1.75632802    1.70860373    0.01353494      15
Co     0.03211669    1.71048582    1.72277286      16
Cr     1.79519339    0.07690547    1.96564279      17
Ni    -1.72209654    0.00608860   -1.77171496      18
