          23
Lattice="  24.8920   0.0000   0.0000   0.0000  24.8920   0.0000   0.0000   0.0000  24.8920 " ConfE="      -5948.8830" DelE="          0.0000"
Co    -2.53013401    2.54913773   -0.04583111       1
Co     2.66685080   -2.65423902   -0.00807145       2
Cr    -2.55388281    0.83308133   -1.79306000       3
Ni    -0.81370644    2.58228809   -1.83501529       4
Co    -0.78624512    2.57297703    1.70596528       5
Co    -2.53730749    0.84039660    1.74295733       6
Co     0.93965743   -2.68552136   -1.81601663       7
Ni     2.71112510   -0.91426470   -1.79676858       8
Ni     0.91601040   -2.63017051    1.72387808       9
Co     2.65431507   -0.86007394    1.68273742      10
Ni    -0.81625073    0.87707258   -3.65379116      11
Cr    -0.82485163    0.91187974    3.56635667      12
Ni     0.95721295   -0.89640002    3.54995947      13
Cr     0.96035562   -0.96064003   -3.67357817      14
Cr    -2.49269400   -0.86302828   -0.06489549      15
Co     0.94892041    2.54633282   -0.03734536      16
Cr     2.65961492    0.77430023   -0.01113378      17
Cr    -0.66615521   -2.59317948   -0.12693739      18
Ni     0.00000000    0.00000000    0.00000000      19
Cr    -0.83440341   -0.96435088   -2.01385164      20
Ni     0.99331472    0.86279508   -1.94661147      21
Cr     0.97526342    1.01157603    1.85817932      22
Cr    -0.90632067   -0.92326687    1.94587023      23
          23
Lattice="  24.8920   0.0000   0.0000   0.0000  24.8920   0.0000   0.0000   0.0000  24.8920 " ConfE="      -5948.8330" DelE="          0.0500"
Co    -2.54597256    2.56333638   -0.03895057       1
Co     2.67628779   -2.65918069   -0.01493212       2
Cr    -2.55662568    0.83514179   -1.78809255       3
Ni    -0.81310459    2.55861139   -1.80418257       4
Co    -0.79101702    2.56778843    1.69747690       5
Co    -2.53237913    0.84050219    1.73178714       6
Co     0.94407089   -2.69177542   -1.81861038       7
Ni     2.73901076   -0.91398289   -1.80872774       8
Ni     0.90555943   -2.60227584    1.69507804       9
Co     2.66629343   -0.85761331    1.67587507      10
Ni    -0.81452175    0.88211410   -3.65216424      11
Cr    -0.82444527    0.92627800    3.57569607      12
Ni     0.94848279   -0.88334112    3.52489658      13
Cr     0.95788119   -0.95448366   -3.65077647      14
Cr    -2.43104240   -0.84745020   -0.07158720      15
Co     0.95188985    2.54942887   -0.02931150      16
Cr     2.70029046    0.78410303   -0.01851334      17
Cr    -0.69626924   -2.68311088   -0.13327800      18
Ni     0.24653671   -0.30239084    0.02068757      19
Cr    -0.84854011   -0.94700369   -2.00620201      20
Ni     0.98308134    0.85809502   -1.90799544      21
Cr     0.95049193    1.03168575    1.82107714      22
Cr    -0.93985728   -0.88928982    1.95130367      23
          23
Lattice="  24.8920   0.0000   0.0000   0.0000  24.8920   0.0000   0.0000   0.0000  24.8920 " ConfE="      -5949.2058" DelE="         -0.3228"
Co    -2.57191079    2.58407792   -0.04095711       1
Co     2.72696977   -2.71339542   -0.01577758       2
Cr    -2.60919922    0.84248795   -1.78976474       3
Ni    -0.82841567    2.57245002   -1.79321896       4
Co    -0.78954516    2.56446108    1.67876605       5
Co    -2.55342729    0.85220999    1.70705937       6
Co     0.95245711   -2.71354707   -1.81774774       7
Ni     2.76846326   -0.91701234   -1.81543107       8
Ni     0.94552073   -2.66397492    1.72283063       9
Co     2.73435290   -0.90440440    1.73085312      10
Ni    -0.81258487    0.84718726   -3.59336201      11
Cr    -0.82112501    0.88664123    3.51749268      12
Ni     0.93433077   -0.88809172    3.47872758      13
Cr     0.91460309   -0.95423914   -3.58901793      14
Cr    -2.59306228   -0.86416212   -0.03189147      15
Co     0.96208196    2.57723870   -0.01944126      16
Cr     2.80603562    0.85293139   -0.04061093      17
Cr    -0.71831804   -2.73689900   -0.07869787      18
Ni     0.97629893   -0.86274055   -0.04735155      19
Cr    -0.84242857   -0.88102581   -1.70773969      20
Ni     0.94998174    0.84845417   -1.80074067      21
Cr     0.93710154    0.95520392    1.66877385      22
Cr    -0.80133752   -0.79655027    1.63575592      23
