          18
Lattice="  24.8920   0.0000   0.0000   0.0000  24.8920   0.0000   0.0000   0.0000  24.8920 " ConfE="      -5938.1237" DelE="          0.0000"
Cr     0.00098094    0.00770065   -3.45640155       1
Ni     3.48995118    0.01090032    0.06711772       2
Co    -0.04076157    0.00436402    3.65848285       3
Cr    -3.56708185    0.04108984    0.02488871       4
Ni    -0.03524138   -3.52146022    0.06055984       5
Ni     0.02555036    3.57214650    0.09099205       6
Ni    -0.00291310   -1.73140518   -1.72512497       7
Cr    -0.00444239    1.75705518   -1.74405964       8
Ni     1.75925197   -1.76065553    0.06242934       9
Ni     1.71502344    1.75402239    0.05605560      10
Co    -1.81994174    0.03403559   -1.74358327      11
Ni     1.73351829    0.00542773    1.87462393      12
Ni    -1.78197456    0.01105013    1.80543576      13
Co    -1.85541462   -1.74887975    0.04915200      14
Co    -1.80465257    1.78887623    0.06578132      15
Ni    -0.02079875   -1.76242198    1.84806410      16
Co    -0.02625668    1.80349018    1.88719633      17
Ni     0.00000000    0.00000000    0.00000000      18
          18
Lattice="  24.8920   0.0000   0.0000   0.0000  24.8920   0.0000   0.0000   0.0000  24.8920 " ConfE="      -5937.6586" DelE="          0.4650"
Cr     0.02681749   -0.02807150   -3.41399160       1
Ni     3.44085898    0.00895375    0.05146008       2
Co    -0.02801108   -0.00236698    3.65619253       3
Cr    -3.56354865    0.04929585   -0.00470657       4
Ni    -0.04446504   -3.59004852    0.07896947       5
Ni     0.01826604    3.63280215    0.10156479       6
Ni    -0.06414433   -1.91536457   -1.74009977       7
Cr    -0.04069733    1.92911743   -1.79329408       8
Ni     1.77504967   -1.89977058    0.09782163       9
Ni     1.75460825    1.92027691    0.15576495      10
Co    -1.71852054    0.03387112   -1.71184573      11
Ni     1.68857744    0.00581857    1.79551206      12
Ni    -1.72479701    0.01709552    1.72869068      13
Co    -1.82283461   -1.75115251    0.03710045      14
Co    -1.73900650    1.78802880    0.04346980      15
Ni    -0.01695812   -1.76795166    1.81254423      16
Co    -0.02550359    1.82209112    1.88687753      17
Ni     0.86229868    0.04620788   -0.88429200      18
          18
Lattice="  24.8920   0.0000   0.0000   0.0000  24.8920   0.0000   0.0000   0.0000  24.8920 " ConfE="      -5938.2804" DelE="         -0.1567"
Cr    -0.05462009    0.01328584   -3.51537568       1
Ni     3.50702092    0.00203307    0.08794830       2
Co    -0.03920340    0.00096973    3.67322541       3
Cr    -3.58019844    0.05256338    0.01509278       4
Ni    -0.04221176   -3.54623481    0.06958737       5
Ni     0.02923338    3.59869228    0.09765626       6
Ni    -0.04747913   -1.74128907   -1.68002475       7
Cr    -0.05733097    1.75597011   -1.69017702       8
Ni     1.71595463   -1.75620575    0.08615977       9
Ni     1.66626930    1.73678425    0.08565965      10
Co    -1.73715693    0.05795397   -1.70055971      11
Ni     1.70407047    0.00346247    1.84968378      12
Ni    -1.75861006    0.01891517    1.77330034      13
Co    -1.84475349   -1.73434637    0.05828327      14
Co    -1.76260111    1.77678483    0.06539028      15
Ni    -0.03441781   -1.75035131    1.83171489      16
Co    -0.03880734    1.80476629    1.89310104      17
Ni     1.66520308    0.00339683   -1.68444315      18
