          18
Lattice="  24.8920   0.0000   0.0000   0.0000  24.8920   0.0000   0.0000   0.0000  24.8920 " ConfE="      -5925.6169" DelE="          0.0000"
Ni     0.06747425   -3.47309995    0.02188140       1
Ni     0.03433155   -0.00590022    3.49689421       2
Ni    -3.50887388   -0.00573151   -0.03752704       3
Co     3.66027618    0.02523917    0.00508224       4
Co     0.07262912    0.03527422   -3.59432111       5
Cr     0.04579557    3.47211009   -0.07763577       6
Ni     1.79501976   -1.72783549    0.03112962       7
Cr    -1.67287585   -1.71646425    0.00218953       8
Co    -1.71472417   -0.02072875    1.70721542       9
Co     1.83377466   -0.00743851    1.78694759      10
Ni     1.85171993   -0.03129279   -1.77087714      11
Co    -1.70824609    0.01762892   -1.78913023      12
Cr    -1.67791713    1.71728954   -0.04210982      13
Co     0.03975842   -1.76849371   -1.81060762      14
Co     0.02988278    1.79053308    1.72085891      15
Co     1.83348737    1.73978735    0.02066991      16
Co     0.08419622    1.74776890   -1.79624868      17
Co     0.00000000    0.00000000    0.00000000      18
          18
Lattice="  24.8920   0.0000   0.0000   0.0000  24.8920   0.0000   0.0000   0.0000  24.8920 " ConfE="      -5925.0001" DelE="          0.6168"
Ni     0.07652709   -3.48012920    0.01101923       1
Ni     0.02188887    0.00541908    3.47897978       2
Ni    -3.54573051    0.00685811   -0.05235885       3
Co     3.71757503    0.03934474   -0.00389951       4
Co     0.07122709    0.03783950   -3.58462382       5
Cr     0.03919157    3.50209061   -0.08444215       6
Ni     1.95286045   -1.76876010   -0.05343490       7
Cr    -1.79158129   -1.75736333   -0.05235776       8
Co    -1.90330227    0.09718380    1.75423395       9
Co     1.95752522    0.03321654    1.77779220      10
Ni     1.83345425   -0.02606408   -1.72817852      11
Co    -1.68860160    0.02308262   -1.73242571      12
Cr    -1.63097653    1.68160839   -0.06317359      13
Co     0.02577187   -1.72568598   -1.71582894      14
Co     0.00471109    1.67783096    1.62894049      15
Co     1.82127745    1.71762158    0.02195825      16
Co     0.07817136    1.72950297   -1.75638960      17
Co    -0.02019245   -1.00618484    1.01915783      18
          18
Lattice="  24.8920   0.0000   0.0000   0.0000  24.8920   0.0000   0.0000   0.0000  24.8920 " ConfE="      -5925.5479" DelE="          0.0690"
Ni     0.07427991   -3.53296091   -0.02110046       1
Ni     0.02554921    0.02588237    3.53004474       2
Ni    -3.51816984   -0.00114361   -0.03844197       3
Co     3.67457834    0.03269189    0.00205386       4
Co     0.07289216    0.04190703   -3.60301218       5
Cr     0.04426766    3.51827717   -0.09813815       6
Ni     1.79066153   -1.69383028   -0.00567834       7
Cr    -1.65400762   -1.70369572   -0.04180959       8
Co    -1.69908846    0.01615623    1.66367346       9
Co     1.84269458    0.02169321    1.77636690      10
Ni     1.83350081   -0.02144612   -1.75893139      11
Co    -1.66944767    0.01693930   -1.73445745      12
Cr    -1.63468676    1.70484317   -0.05897031      13
Co     0.02784389   -1.74960099   -1.76777488      14
Co     0.01634366    1.74338794    1.65131277      15
Co     1.81376838    1.72490355    0.01580437      16
Co     0.07815717    1.73335883   -1.75704885      17
Co     0.02843124   -1.73835381    1.72594265      18
