          18
Lattice="  24.8920   0.0000   0.0000   0.0000  24.8920   0.0000   0.0000   0.0000  24.8920 " ConfE="      -5949.8195" DelE="          0.0000"
Ni    -0.00433578    0.01281970   -3.50200564       1
Co     3.46436195   -0.06209596    0.00682073       2
Co    -3.59058661   -0.00063208    0.04602668       3
Cr     0.01446205   -0.00423241    3.66055228       4
Co     0.01478937   -3.55286434    0.06512594       5
Co    -0.00669048    3.50200440    0.05447072       6
Ni     1.76845287    0.00913055    1.86029072       7
Cr     1.74340698   -1.70293352   -0.06857007       8
Cr     1.76382967    1.70636164    0.02025888       9
Co     0.01575172   -1.72707805   -1.69512849      10
Cr    -0.01018039    1.72440649   -1.71201156      11
Ni    -1.79524767   -0.03019221    1.85733953      12
Ni    -1.79689142   -1.78269773    0.08044326      13
Co    -1.83651528    0.00821596   -1.70460178      14
Cr    -1.79429937    1.79181615    0.08257144      15
Cr     0.00958077   -1.76498326    1.80477828      16
Co    -0.01844383    1.72797742    1.82064631      17
Cr     0.00000000    0.00000000    0.00000000      18
          18
Lattice="  24.8920   0.0000   0.0000   0.0000  24.8920   0.0000   0.0000   0.0000  24.8920 " ConfE="      -5949.1606" DelE="          0.6589"
Ni    -0.00757427    0.00375199   -3.48431836       1
Co     3.44868257   -0.05071972   -0.00174103       2
Co    -3.57594559   -0.00583695    0.02966318       3
Cr     0.03781644   -0.01190833    3.63786507       4
Co     0.00050851   -3.63652323    0.09558841       5
Co    -0.02875040    3.59880827    0.06657582       6
Ni     1.74155099    0.02453645    1.76656558       7
Cr     1.71371090   -1.91788503    0.08470608       8
Cr     1.75658716    1.93726539    0.11807408       9
Co    -0.04377748   -1.87877621   -1.69823278      10
Cr    -0.13667320    1.88902693   -1.77314058      11
Ni    -1.77472974   -0.03343407    1.84513322      12
Ni    -1.74244259   -1.77134775    0.08126249      13
Co    -1.70722664    0.01785772   -1.64680897      14
Cr    -1.63619218    1.69784132    0.07016879      15
Cr     0.00514575   -1.70290607    1.74918407      16
Co    -0.01902979    1.71254531    1.76039227      17
Cr     0.99528354    0.02652597   -1.00519264      18
          18
Lattice="  24.8920   0.0000   0.0000   0.0000  24.8920   0.0000   0.0000   0.0000  24.8920 " ConfE="      -5949.5717" DelE="          0.2478"
Ni    -0.01728275    0.00619746   -3.54352984       1
Co     3.52403347   -0.04753501    0.06226885       2
Co    -3.60303495   -0.00509905    0.04452069       3
Cr     0.01193065    0.00380929    3.67329358       4
Co     0.00872376   -3.59561749    0.08303231       5
Co    -0.02880697    3.56854627    0.06825526       6
Ni     1.74531210    0.01715529    1.83537253       7
Cr     1.68004991   -1.75130261    0.07715652       8
Cr     1.68757901    1.74832101    0.08548695       9
Co     0.00934780   -1.72242946   -1.64970314      10
Cr    -0.09390442    1.69299132   -1.64169025      11
Ni    -1.78326976   -0.03005620    1.85677146      12
Ni    -1.75144072   -1.75748931    0.09861586      13
Co    -1.76164597    0.01905692   -1.66084724      14
Cr    -1.74537345    1.75910223    0.11593404      15
Cr    -0.00261454   -1.72938816    1.81196932      16
Co    -0.03374506    1.71075339    1.77833294      17
Cr     1.68734213    0.00613209   -1.61856922      18
