          18
Lattice="  24.8920   0.0000   0.0000   0.0000  24.8920   0.0000   0.0000   0.0000  24.8920 " ConfE="      -5936.1276" DelE="          0.0000"
Cr     3.45734626    0.00836640   -0.05049770       1
Co    -0.02160343   -3.38761731   -0.02372343       2
Ni    -3.63663074    0.03530314   -0.04865375       3
Cr    -0.06861654    3.61188046   -0.00227876       4
Ni    -0.07398994    0.05177644   -3.58441616       5
Co    -0.06708541    0.05119767    3.49149600       6
Co     1.71744747    0.00357996   -1.75457012       7
Cr     1.73606272   -0.03102792    1.69217644       8
Ni    -0.05670406   -1.71926666   -1.78452564       9
Cr    -0.01511365   -1.73894871    1.69148020      10
Co     1.71001600    1.86464426   -0.03140025      11
Cr    -1.86158235   -1.74258113    0.01117414      12
Ni    -1.84576110    1.80795024   -0.05553366      13
Cr    -0.06172497    1.81289077   -1.77113055      14
Co    -0.05154594    1.79971102    1.71960508      15
Ni    -1.85845121    0.04020339   -1.81603731      16
Co    -1.82793863    0.02935864    1.70456184      17
Cr     0.00000000    0.00000000    0.00000000      18
          18
Lattice="  24.8920   0.0000   0.0000   0.0000  24.8920   0.0000   0.0000   0.0000  24.8920 " ConfE="      -5935.5377" DelE="          0.5899"
Cr     3.50613689    0.03812041   -0.03498082       1
Co    -0.02270987   -3.33957716   -0.03339416       2
Ni    -3.64237025    0.03326157   -0.05044654       3
Cr    -0.05679078    3.58000214   -0.01383245       4
Ni    -0.09384691    0.05611033   -3.64802648       5
Co    -0.08781847    0.06402500    3.54424325       6
Co     1.72116339    0.03859513   -1.92739973       7
Cr     1.76619701    0.16030350    1.90684696       8
Ni    -0.10375574   -1.71852873   -1.88306993       9
Cr    -0.10291230   -1.76923149    1.85820962      10
Co     1.70433311    1.77761392   -0.05901370      11
Cr    -1.82975415   -1.71336606    0.01603284      12
Ni    -1.81109960    1.76999078   -0.06147209      13
Cr    -0.03642749    1.71645940   -1.71027688      14
Co    -0.02498641    1.72788111    1.67984170      15
Ni    -1.83974197    0.02934024   -1.81065286      16
Co    -1.74361356   -0.00286550    1.64726929      17
Cr     0.80574148   -0.72336151    0.03646797      18
          18
Lattice="  24.8920   0.0000   0.0000   0.0000  24.8920   0.0000   0.0000   0.0000  24.8920 " ConfE="      -5936.0262" DelE="          0.1014"
Cr     3.54020817    0.05700307   -0.05944374       1
Co    -0.04622551   -3.44804618   -0.03592199       2
Ni    -3.65479792    0.04394163   -0.04764022       3
Cr    -0.06825334    3.60632378   -0.00613070       4
Ni    -0.09434305    0.06492386   -3.60719316       5
Co    -0.07736190    0.06001075    3.53242166       6
Co     1.67879410    0.04599440   -1.77185769       7
Cr     1.66469925    0.07526663    1.69032784       8
Ni    -0.09006728   -1.67378873   -1.76118320       9
Cr    -0.06276362   -1.64679033    1.67362786      10
Co     1.67597479    1.79049841   -0.05021241      11
Cr    -1.81536249   -1.69894851    0.01562328      12
Ni    -1.83233414    1.79754067   -0.05961880      13
Cr    -0.07373460    1.79836698   -1.74220295      14
Co    -0.05280463    1.77878330    1.70000132      15
Ni    -1.86450256    0.05331296   -1.80877671      16
Co    -1.77893960    0.02685490    1.66379520      17
Cr     1.71495966   -1.65416734   -0.02841109      18
