          18
Lattice="  24.8920   0.0000   0.0000   0.0000  24.8920   0.0000   0.0000   0.0000  24.8920 " ConfE="      -5950.0077" DelE="          0.0000"
Ni    -0.06369465   -3.50221655   -0.00059785       1
Co    -0.11671205    0.00401697   -3.48998507       2
Co    -0.03799051    3.60675717    0.03531154       3
Ni    -0.08821500    0.01476727    3.56813261       4
Co    -3.63233396    0.04077370   -0.03162358       5
Ni     3.46512463    0.04625091   -0.00260705       6
Ni    -1.79129811   -1.71540006   -0.04026009       7
Cr     1.68404831   -1.79591616   -0.05071211       8
Cr    -1.76820940    0.03855009   -1.83251986       9
Ni     1.67936883    0.01888910   -1.74838197      10
Ni    -0.08381163   -1.74636878    1.79010456      11
Ni    -0.04748153    1.83808156   -1.75866098      12
Co    -0.03976251    1.79815305    1.79454324      13
Ni    -1.84916338    0.01600850    1.78152759      14
Cr     1.67717956    0.00580396    1.72138687      15
Ni    -1.80261259    1.79423224    0.00716914      16
Cr     1.67364384    1.87453624    0.03517165      17
Co     0.00000000    0.00000000    0.00000000      18
          18
Lattice="  24.8920   0.0000   0.0000   0.0000  24.8920   0.0000   0.0000   0.0000  24.8920 " ConfE="      -5948.7320" DelE="          1.2757"
Ni    -0.08143472   -3.47483558   -0.05540203       1
Co    -0.06687125   -0.06294726   -3.45471412       2
Co    -0.03814291    3.59316886    0.02085503       3
Ni    -0.09795208    0.00293547    3.55495140       4
Co    -3.69372088    0.03950487   -0.01347315       5
Ni     3.52456004    0.05452634    0.01518338       6
Ni    -1.97435499   -1.78079006    0.02516086       7
Cr     1.77102947   -1.82391753   -0.07383394       8
Cr    -1.88507847    0.01490498   -1.85885610       9
Ni     1.87410741    0.10092055   -1.78709379      10
Ni    -0.09821755   -1.72351144    1.70350651      11
Ni    -0.03748896    1.75760557   -1.74127810      12
Co    -0.03279894    1.74452257    1.73919077      13
Ni    -1.85697827   -0.00002550    1.75631232      14
Cr     1.58120833    0.00846429    1.57296900      15
Ni    -1.79542339    1.73907955   -0.01331230      16
Cr     1.65500810    1.83604734    0.02606372      17
Co    -0.05418603   -0.78300368   -0.84737647      18
          18
Lattice="  24.8920   0.0000   0.0000   0.0000  24.8920   0.0000   0.0000   0.0000  24.8920 " ConfE="      -5949.8161" DelE="          0.1916"
Ni    -0.06873674   -3.52965815    0.01511021       1
Co    -0.09222189    0.03924788   -3.54856327       2
Co    -0.03962535    3.61917345    0.03170175       3
Ni    -0.08964653    0.01839968    3.58222097       4
Co    -3.65291927    0.04416715   -0.02542960       5
Ni     3.48536822    0.06004058    0.00379207       6
Ni    -1.81705077   -1.69580112    0.00057448       7
Cr     1.67062578   -1.75061907   -0.03435615       8
Cr    -1.77604688    0.04567389   -1.81494318       9
Ni     1.67668198    0.07424737   -1.70123202      10
Ni    -0.07305978   -1.70115961    1.73959188      11
Ni    -0.05448436    1.80511029   -1.73559776      12
Co    -0.01808180    1.76365882    1.75766455      13
Ni    -1.83956947    0.02329660    1.77806574      14
Cr     1.64391683    0.03683155    1.67901194      15
Ni    -1.78548855    1.76688666    0.00683672      16
Cr     1.65293379    1.86331769    0.05913822      17
Co    -0.05008839   -1.65621729   -1.70701203      18
