          18
Lattice="  24.8920   0.0000   0.0000   0.0000  24.8920   0.0000   0.0000   0.0000  24.8920 " ConfE="      -5946.8805" DelE="          0.0000"
Ni     0.05175885    0.05493616   -3.49330415       1
Cr    -3.52899934   -0.03624454   -0.10986437       2
Co     0.04567677    0.04952114    3.63653600       3
Cr     3.60167839    0.01273937    0.04370417       4
Ni     0.02727960   -3.50507457    0.02614578       5
Cr    -0.02632219    3.57122665    0.05704696       6
Cr     0.01203082   -1.70371229   -1.78783001       7
Ni     0.00584006    1.78167244   -1.72278387       8
Ni    -1.76023607   -1.73500318    0.01433703       9
Ni    -1.79653874    1.74799722    0.01598651      10
Cr     1.87552121    0.03514259   -1.72065563      11
Cr    -1.72866583    0.01429657    1.87502002      12
Co     1.80676585    0.03642299    1.83623757      13
Ni     1.80756301   -1.74917797    0.03630109      14
Co     1.80948226    1.80081416    0.04544004      15
Co     0.03854173   -1.72590442    1.84713253      16
Cr     0.01374527    1.77802913    1.78938584      17
Ni     0.00000000    0.00000000    0.00000000      18
          18
Lattice="  24.8920   0.0000   0.0000   0.0000  24.8920   0.0000   0.0000   0.0000  24.8920 " ConfE="      -5946.3198" DelE="          0.5607"
Ni     0.03612154    0.06209792   -3.44618760       1
Cr    -3.43050283   -0.05652127   -0.11704727       2
Co     0.04218502    0.04767758    3.63740541       3
Cr     3.61336851   -0.00216594    0.00601887       4
Ni     0.04332034   -3.56008533    0.04129635       5
Cr     0.00118455    3.64076868    0.08191517       6
Cr     0.04849829   -1.82710794   -1.78867843       7
Ni     0.05884691    1.93202985   -1.73957640       8
Ni    -1.78850763   -1.92872890    0.07976601       9
Ni    -1.84857600    1.94979111    0.07525011      10
Cr     1.77545824    0.02438933   -1.64286474      11
Cr    -1.68781873   -0.00143879    1.78341727      12
Co     1.76819568    0.02660208    1.78302333      13
Ni     1.78969228   -1.76216132    0.04012048      14
Co     1.79479786    1.79273085    0.03531128      15
Co     0.02974063   -1.71473553    1.81561046      16
Cr     0.03578339    1.69017209    1.66209957      17
Ni    -0.74883080    0.03440649   -0.65150780      18
          18
Lattice="  24.8920   0.0000   0.0000   0.0000  24.8920   0.0000   0.0000   0.0000  24.8920 " ConfE="      -5947.0403" DelE="         -0.1598"
Ni     0.06316221    0.04762537   -3.52501370       1
Cr    -3.58217521   -0.02213066   -0.00898849       2
Co     0.04969285    0.04767357    3.65867703       3
Cr     3.62279642    0.00850735    0.02347797       4
Ni     0.02953880   -3.52050910    0.03019845       5
Cr    -0.00751812    3.60439906    0.07977409       6
Cr     0.05225819   -1.69574595   -1.74005687       7
Ni     0.03720163    1.78579671   -1.67954443       8
Ni    -1.74106201   -1.73550244    0.04144621       9
Ni    -1.76252839    1.75912577    0.06243474      10
Cr     1.81353010    0.03146632   -1.67865179      11
Cr    -1.67188640    0.00285408    1.82266079      12
Co     1.78077153    0.03884796    1.80794315      13
Ni     1.78324397   -1.71791457    0.03817765      14
Co     1.79727466    1.77830884    0.05354619      15
Co     0.03228880   -1.67923373    1.80954201      16
Cr     0.06036428    1.70764601    1.73360782      17
Ni    -1.69948623    0.01771455   -1.70290423      18
