          18
Lattice="  24.8920   0.0000   0.0000   0.0000  24.8920   0.0000   0.0000   0.0000  24.8920 " ConfE="      -5949.0404" DelE="          0.0000"
Ni    -3.52358041    0.01984970    0.02697603       1
Ni    -0.01308243    3.40906486    0.02987069       2
Ni     0.03540640   -3.54801529    0.02183430       3
Cr     0.04262866   -0.05251357    3.58592016       4
Co     3.58782485   -0.04947432    0.01691612       5
Cr     0.04734105    0.00084338   -3.50511375       6
Ni    -1.73190900   -0.01323146    1.78129796       7
Co     0.07989606    1.67053002    1.81508961       8
Co    -1.75189829    0.01166378   -1.72387347       9
Co     0.07464317    1.69958131   -1.79403968      10
Cr    -1.75320616   -1.74837197    0.01091246      11
Cr     0.04438269   -1.75961476    1.78820034      12
Co     1.78969827   -1.76740556    0.01057554      13
Cr     0.08816349   -1.69650159   -1.77911743      14
Co     1.83133081    1.72042237    0.03419359      15
Cr     1.77856155   -0.01075370    1.75257555      16
Co     1.83539705   -0.01666271   -1.75890319      17
Co     0.00000000    0.00000000    0.00000000      18
          18
Lattice="  24.8920   0.0000   0.0000   0.0000  24.8920   0.0000   0.0000   0.0000  24.8920 " ConfE="      -5947.5312" DelE="          1.5093"
Ni    -3.51117051   -0.00876833    0.02715580       1
Ni     0.02114289    3.40031108    0.03402283       2
Ni     0.05883082   -3.46031810    0.01979891       3
Cr     0.06343912   -0.06103654    3.71544083       4
Co     3.47949937   -0.10064789    0.02302633       5
Cr     0.05934974   -0.03695077   -3.63695683       6
Ni    -1.72073078   -0.08829248    1.94606757       7
Co     0.12180928    1.65157576    1.90430992       8
Co    -1.76919607   -0.06185026   -1.89037874       9
Co     0.13896490    1.66014019   -1.88947892      10
Cr    -1.65163366   -1.59229816    0.01316194      11
Cr     0.08136875   -1.75532824    1.90125109      12
Co     0.84166659   -0.67622557    0.01705535      13
Cr     0.07570538   -1.67631301   -1.88264776      14
Co     1.77687415    1.69360838    0.01505740      15
Cr     1.80015430    0.06085487    1.90950961      16
Co     1.92548628    0.01082800   -1.94836177      17
Co    -1.18557663    1.10773730    0.00980137      18
          18
Lattice="  24.8920   0.0000   0.0000   0.0000  24.8920   0.0000   0.0000   0.0000  24.8920 " ConfE="      -5948.5525" DelE="          0.4879"
Ni    -3.55600075   -0.01712349    0.03847942       1
Ni     0.01164060    3.45473131    0.03383642       2
Ni     0.06788412   -3.50968318    0.02120205       3
Cr     0.05996663   -0.06849623    3.58205105       4
Co     3.54312389   -0.09703776    0.02851960       5
Cr     0.07432057   -0.04499339   -3.50395679       6
Ni    -1.72329341   -0.04909280    1.80683990       7
Co     0.08135029    1.67338032    1.80780163       8
Co    -1.74013668   -0.03841253   -1.74240390       9
Co     0.07938531    1.69251686   -1.78548084      10
Cr    -1.78347356   -1.74353161    0.02691471      11
Cr     0.14407715   -1.77607887    1.74896786      12
Co     0.07777012   -0.08733947    0.01652337      13
Cr     0.13483762   -1.70811894   -1.73362565      14
Co     1.81524583    1.73773217    0.02696687      15
Cr     1.80691755   -0.04659301    1.72630489      16
Co     1.82411119   -0.06730807   -1.72728055      17
Co    -1.73446263    1.67397394    0.01410649      18
