          18
Lattice="  24.8920   0.0000   0.0000   0.0000  24.8920   0.0000   0.0000   0.0000  24.8920 " ConfE="      -5944.7451" DelE="          0.0000"
Ni    -0.07978672   -3.41116576    0.03890379       1
Cr     3.30640804   -0.01079430    0.07081607       2
Ni    -0.16347669    3.66418877    0.01114851       3
Co    -3.65147449    0.11294954    0.01932554       4
Ni    -0.08049745    0.09329808    3.54801858       5
Co    -0.09606518    0.09236550   -3.50554995       6
Ni    -0.09324262   -1.69477128    1.78472563       7
Co    -0.08460684   -1.66321939   -1.69908049       8
Co     1.67707241    0.04198947    1.72976999       9
Cr     1.65084641    0.04492736   -1.70021734      10
Cr    -1.93391257   -1.74587779    0.02572730      11
Ni     1.63946689    1.88984694    0.03089183      12
Cr    -1.90007789    1.86326251   -0.00343536      13
Ni    -1.88570647    0.06423435    1.77448373      14
Ni    -1.87547168    0.08331167   -1.72679693      15
Ni    -0.12561166    1.85235138    1.77120053      16
Cr    -0.10222932    1.84685405   -1.76270430      17
Cr     0.00000000    0.00000000    0.00000000      18
          18
Lattice="  24.8920   0.0000   0.0000   0.0000  24.8920   0.0000   0.0000   0.0000  24.8920 " ConfE="      -5944.3288" DelE="          0.4163"
Ni    -0.08417391   -3.36049050    0.03203663       1
Cr     3.42110619    0.02485895    0.09079056       2
Ni    -0.15373347    3.64789049    0.01635607       3
Co    -3.67391847    0.09985965    0.02103045       4
Ni    -0.10167913    0.09314871    3.59480156       5
Co    -0.10881132    0.09405145   -3.54275028       6
Ni    -0.12802031   -1.70723440    1.87343735       7
Co    -0.14005657   -1.71740244   -1.82759810       8
Co     1.67514442    0.07700904    1.86975265       9
Cr     1.69198142    0.10822539   -1.88852292      10
Cr    -1.91105699   -1.71640208    0.03619404      11
Ni     1.62659796    1.79585466    0.03437704      12
Cr    -1.84824068    1.78883594   -0.00142037      13
Ni    -1.87625640    0.04709644    1.77033246      14
Ni    -1.84657850    0.05494316   -1.70503597      15
Ni    -0.12411124    1.81065399    1.76060693      16
Cr    -0.08974121    1.74645558   -1.67746564      17
Cr     0.79445547   -0.73124793   -0.05194847      18
          18
Lattice="  24.8920   0.0000   0.0000   0.0000  24.8920   0.0000   0.0000   0.0000  24.8920 " ConfE="      -5944.8882" DelE="         -0.1431"
Ni    -0.11760035   -3.47112616    0.04208905       1
Cr     3.43419194    0.05195248    0.06522232       2
Ni    -0.16289689    3.67340685    0.01622163       3
Co    -3.68555855    0.11526507    0.01920542       4
Ni    -0.09856655    0.09619050    3.56928494       5
Co    -0.10496296    0.09709317   -3.53062147       6
Ni    -0.13099481   -1.67509817    1.78410840       7
Co    -0.11001949   -1.64255901   -1.67671592       8
Co     1.65628392    0.05439215    1.73604119       9
Cr     1.60235036    0.08186134   -1.70014546      10
Cr    -1.88046296   -1.71109659    0.02922271      11
Ni     1.60565084    1.82520841    0.02121545      12
Cr    -1.87007745    1.82988557   -0.00205483      13
Ni    -1.89836536    0.06742016    1.76354623      14
Ni    -1.86032456    0.09178693   -1.70242562      15
Ni    -0.13605345    1.83688709    1.76084071      16
Cr    -0.11844627    1.83697761   -1.73946251      17
Cr     1.57300125   -1.57860410    0.01345883      18
