          18
Lattice="  24.8920   0.0000   0.0000   0.0000  24.8920   0.0000   0.0000   0.0000  24.8920 " ConfE="      -5946.3011" DelE="          0.0000"
Ni     0.01755783    3.60427436    0.05411415       1
Ni     3.56799958    0.01860161    0.07990008       2
Ni    -0.03467115    0.04891758    3.59440969       3
Co    -3.48043824    0.02726393    0.08725176       4
Co    -0.00079142   -3.47604252    0.08281773       5
Co     0.02601202    0.05293424   -3.43448066       6
Co    -0.00046838   -1.74038808   -1.67405327       7
Co    -1.73328585   -0.01419669   -1.64359282       8
Ni    -0.00580599    1.80438691    1.82049983       9
Ni     1.77788079    0.03439665    1.83328799      10
Cr    -0.00231260   -1.72927702    1.78110770      11
Cr    -1.79613981   -0.03760364    1.71838174      12
Cr     0.02433843    1.74601264   -1.74866454      13
Co     1.80104518    0.00352517   -1.69536411      14
Cr     1.81374605    1.83990836    0.06627740      15
Cr    -1.77693046    1.79229784    0.03907238      16
Cr     1.80635724   -1.79720318    0.04607879      17
Cr     0.00000000    0.00000000    0.00000000      18
          18
Lattice="  24.8920   0.0000   0.0000   0.0000  24.8920   0.0000   0.0000   0.0000  24.8920 " ConfE="      -5945.7311" DelE="          0.5700"
Ni     0.01890672    3.61432073    0.06232815       1
Ni     3.57638953    0.00962972    0.08352267       2
Ni    -0.02162338    0.05364184    3.63798594       3
Co    -3.40513237    0.02484590    0.07919885       4
Co    -0.00341982   -3.40657316    0.07362546       5
Co     0.03557780    0.05839876   -3.49923395       6
Co     0.03557263   -1.76421000   -1.84156846       7
Co    -1.78551591    0.03721580   -1.84656350       8
Ni    -0.00741796    1.77148772    1.81128054       9
Ni     1.75277917    0.01440915    1.82734679      10
Cr     0.03678808   -1.74428859    1.90494161      11
Cr    -1.82244337    0.04887531    1.90307657      12
Cr     0.01176118    1.65661696   -1.67815980      13
Co     1.70338632   -0.01847410   -1.63094092      14
Cr     1.69634318    1.70734443    0.03986502      15
Cr    -1.70898059    1.72427389    0.02982945      16
Cr     1.76214806   -1.74516627    0.05035590      17
Cr    -0.73924343   -0.70539859   -0.01829546      18
          18
Lattice="  24.8920   0.0000   0.0000   0.0000  24.8920   0.0000   0.0000   0.0000  24.8920 " ConfE="      -5946.3845" DelE="         -0.0833"
Ni     0.02820163    3.60037525    0.05621103       1
Ni     3.57170864    0.01548899    0.08028413       2
Ni    -0.01158839    0.06600398    3.64490139       3
Co    -3.53351217    0.05170106    0.07512323       4
Co     0.01464757   -3.52301602    0.08555825       5
Co     0.04087324    0.05186397   -3.49526079       6
Co     0.02759122   -1.70158138   -1.67840903       7
Co    -1.69933534    0.03516539   -1.69776647       8
Ni     0.02226674    1.78945148    1.82872596       9
Ni     1.77165129    0.04203011    1.83734160      10
Cr     0.02325793   -1.68313596    1.80826683      11
Cr    -1.77358814    0.04801325    1.83684853      12
Cr     0.05307403    1.70879170   -1.74039829      13
Co     1.76731342    0.01217624   -1.67273277      14
Cr     1.71813654    1.73108616    0.02562954      15
Cr    -1.59984125    1.60256110    0.01055313      16
Cr     1.68304155   -1.68217991    0.03558057      17
Cr    -1.65842011   -1.55713369    0.02883209      18
