          18
Lattice="  24.8920   0.0000   0.0000   0.0000  24.8920   0.0000   0.0000   0.0000  24.8920 " ConfE="      -5934.2274" DelE="          0.0000"
Co     0.02129933   -3.50686051   -0.01346838       1
Ni     3.45527329   -0.02380151    0.02143465       2
Ni    -0.04597330    3.61041444    0.04352600       3
Ni    -3.58692348    0.03217598    0.01672394       4
Cr    -0.01415019   -0.08984193   -3.49830934       5
Ni    -0.05086788    0.03537628    3.54707314       6
Cr     0.08145222   -1.88620042   -1.66054062       7
Ni    -0.01749285   -1.74839911    1.73751139       8
Co     1.68519869   -0.01478172   -1.75309494       9
Co     1.76470086    0.01768430    1.79002202      10
Ni    -1.83567525   -1.74833939    0.01756157      11
Cr     1.72271859    1.85278908   -0.01682782      12
Co    -1.75914496    1.81048666   -0.00142783      13
Co    -1.73223103   -0.00893360   -1.80429422      14
Ni    -1.81766086    0.04397542    1.78038176      15
Cr    -0.05750567    1.88114751   -1.75326275      16
Cr     0.02346536    1.78256866    1.73234355      17
Ni     0.00000000    0.00000000    0.00000000      18
          18
Lattice="  24.8920   0.0000   0.0000   0.0000  24.8920   0.0000   0.0000   0.0000  24.8920 " ConfE="      -5933.5675" DelE="          0.6599"
Co     0.02191204   -3.49516827    0.00244671       1
Ni     3.42165257   -0.03971925    0.01502497       2
Ni    -0.02711170    3.60936042    0.03469138       3
Ni    -3.56210755    0.01882180    0.01985455       4
Cr    -0.01010522   -0.04725780   -3.56036006       5
Ni    -0.05695510    0.04948256    3.60949449       6
Cr     0.01167638   -1.88709590   -1.86162351       7
Ni    -0.08902602   -1.77511118    1.91040243       8
Co     1.72312256    0.05861276   -1.93135857       9
Co     1.79485499    0.07129538    1.96176921      10
Ni    -1.71899563   -1.71600031    0.00854594      11
Cr     1.67745294    1.75306828   -0.00646979      12
Co    -1.67517723    1.74945456   -0.00503458      13
Co    -1.66197606   -0.00191659   -1.78948149      14
Ni    -1.78163642    0.03179875    1.78317984      15
Cr    -0.03355578    1.78247594   -1.68558445      16
Cr     0.01240525    1.71217517    1.66966631      17
Ni     0.94130440   -0.92251740    0.00399979      18
          18
Lattice="  24.8920   0.0000   0.0000   0.0000  24.8920   0.0000   0.0000   0.0000  24.8920 " ConfE="      -5934.2385" DelE="         -0.0111"
Co    -0.01538079   -3.57531834   -0.00456066       1
Ni     3.50640391    0.02366557    0.02735608       2
Ni    -0.04383466    3.63923552    0.04166361       3
Ni    -3.60054987    0.03131401    0.01688252       4
Cr    -0.02377515   -0.05847511   -3.55211194       5
Ni    -0.05446217    0.04547324    3.55975582       6
Cr     0.00565836   -1.80032343   -1.72473990       7
Ni    -0.05133287   -1.71667089    1.73481422       8
Co     1.63832028    0.03708740   -1.71083900       9
Co     1.70867727    0.07181805    1.76827724      10
Ni    -1.78526608   -1.72291340    0.00126116      11
Cr     1.69008512    1.81190458   -0.00642580      12
Co    -1.71429404    1.78595435   -0.00186178      13
Co    -1.69130982    0.01171578   -1.77090565      14
Ni    -1.80120077    0.05287269    1.75854009      15
Cr    -0.06845826    1.82164482   -1.66952030      16
Cr     0.00570124    1.74040957    1.65324130      17
Ni     1.70365302   -1.73093917    0.01565316      18
