          18
Lattice="  24.8920   0.0000   0.0000   0.0000  24.8920   0.0000   0.0000   0.0000  24.8920 " ConfE="      -5938.1028" DelE="          0.0000"
Ni     0.05538455    3.43127093   -0.01283930       1
Ni    -3.37776809   -0.00221584   -0.00336343       2
Cr     3.75159074   -0.11186116   -0.03234918       3
Cr     0.09754589   -3.62489882   -0.01797214       4
Co     0.07836308   -0.05045671   -3.58338278       5
Co     0.09057952   -0.07262504    3.52137948       6
Ni    -1.67878591   -0.01982576   -1.76339225       7
Ni     0.05375359    1.71947556    1.74619384       8
Cr     0.02518026    1.74732626   -1.81044359       9
Cr    -1.66344777   -0.03648191    1.84480871      10
Ni     1.85370834   -1.80688381   -0.02911542      11
Ni     1.86691758   -0.03460807   -1.79231013      12
Ni     0.07988092   -1.80833847   -1.80016612      13
Cr     1.87368285    1.71330748   -0.04138745      14
Cr    -1.66744799   -1.88921581    0.04521858      15
Cr     0.09419193   -1.80675896    1.77497171      16
Co     1.85072202   -0.02270424    1.71772353      17
Cr     0.00000000    0.00000000    0.00000000      18
          18
Lattice="  24.8920   0.0000   0.0000   0.0000  24.8920   0.0000   0.0000   0.0000  24.8920 " ConfE="      -5937.5170" DelE="          0.5858"
Ni     0.07470002    3.40637041    0.01556486       1
Ni    -3.36562118   -0.01424362   -0.02125580       2
Cr     3.71550598   -0.08806865   -0.03012496       3
Cr     0.09126227   -3.60300742   -0.01794897       4
Co     0.08752749   -0.06009880   -3.63670735       5
Co     0.10092294   -0.09428385    3.59466660       6
Ni    -1.69149294   -0.08284685   -1.88832782       7
Ni     0.12997280    1.74625387    1.92251418       8
Cr     0.07581013    1.76695002   -1.91037753       9
Cr    -1.67614063   -0.05282016    1.95750600      10
Ni     1.83317099   -1.77658588   -0.03540676      11
Ni     1.82602363   -0.00714919   -1.77790482      12
Ni     0.07672577   -1.77721597   -1.78626726      13
Cr     1.84447339    1.69175768   -0.01477218      14
Cr    -1.62533631   -1.82576087    0.03141646      15
Cr     0.08173274   -1.68999579    1.69678272      16
Co     1.79859495   -0.01086880    1.68874458      17
Cr    -0.93923240    1.00154492    0.01476870      18
          18
Lattice="  24.8920   0.0000   0.0000   0.0000  24.8920   0.0000   0.0000   0.0000  24.8920 " ConfE="      -5937.9888" DelE="          0.1140"
Ni     0.08829592    3.51320793   -0.00211708       1
Ni    -3.42326423   -0.04137399   -0.00893313       2
Cr     3.73416203   -0.12058352   -0.03488655       3
Cr     0.09482039   -3.63283148   -0.01887539       4
Co     0.08255523   -0.06302448   -3.60709209       5
Co     0.09787480   -0.08640646    3.56028948       6
Ni    -1.63901205   -0.04844479   -1.74946605       7
Ni     0.09329769    1.69493086    1.75956120       8
Cr     0.07036367    1.73024278   -1.81246859       9
Cr    -1.62269979   -0.07813514    1.82907217      10
Ni     1.83539186   -1.80406368   -0.03369841      11
Ni     1.85505527   -0.04416351   -1.78649940      12
Ni     0.08478288   -1.80697117   -1.78630074      13
Cr     1.74845218    1.66796594   -0.06351931      14
Cr    -1.60209535   -1.81584873    0.06283467      15
Cr     0.11249241   -1.79693005    1.75395016      16
Co     1.82302193   -0.04583134    1.69430419      17
Cr    -1.55010644    1.65959561   -0.01136821      18
