          18
Lattice="  24.8920   0.0000   0.0000   0.0000  24.8920   0.0000   0.0000   0.0000  24.8920 " ConfE="      -5945.1987" DelE="          0.0000"
Co     3.48057046   -0.02042385    0.00810428       1
Co    -0.02537975    3.48477215   -0.02435903       2
Cr    -3.51836644   -0.06425627    0.01153693       3
Ni     0.00224505   -3.59177122    0.02538755       4
Co    -0.05232520   -0.03381582   -3.56004567       5
Co    -0.01673575   -0.06133500    3.55706218       6
Ni     1.71707335   -0.02167321   -1.75894630       7
Cr     1.75703361    0.01744813    1.77293082       8
Co    -0.03980363    1.74624557   -1.76767173       9
Cr     0.03953916    1.72104141    1.70724195      10
Cr     1.80585776   -1.80919839   -0.04397774      11
Co    -1.84796778    1.72311103   -0.01830230      12
Co    -1.77758754   -1.83467786    0.06833545      13
Ni    -0.00929807   -1.83641945   -1.75688699      14
Cr     0.00993663   -1.76181811    1.80574781      15
Ni    -1.79560200   -0.06971971   -1.78160045      16
Co    -1.77729002   -0.04767828    1.78496921      17
Ni     0.00000000    0.00000000    0.00000000      18
          18
Lattice="  24.8920   0.0000   0.0000   0.0000  24.8920   0.0000   0.0000   0.0000  24.8920 " ConfE="      -5944.6407" DelE="          0.5580"
Co     3.49016071   -0.02215298   -0.01188649       1
Co    -0.03958118    3.45321580   -0.01460988       2
Cr    -3.52911999   -0.04093128   -0.00723823       3
Ni     0.01354770   -3.57869255    0.03415984       4
Co    -0.06774490   -0.05805579   -3.61477700       5
Co    -0.02261710   -0.07418873    3.63566728       6
Ni     1.73880718   -0.09324725   -1.89885276       7
Cr     1.85861112   -0.07214003    1.94102355       8
Co    -0.10704191    1.73740955   -1.93037679       9
Cr    -0.06712792    1.64036144    1.94216754      10
Cr     1.74564692   -1.69416434   -0.02952391      11
Co    -1.76689983    1.67693838   -0.00821465      12
Co    -1.72331036   -1.79159915    0.08234645      13
Ni    -0.00027180   -1.80299067   -1.73480632      14
Cr     0.01125217   -1.59680939    1.71159956      15
Ni    -1.76034917   -0.07765119   -1.75269724      16
Co    -1.73021016   -0.03460132    1.77196630      17
Ni     1.08561519    1.08172679    0.03608098      18
          18
Lattice="  24.8920   0.0000   0.0000   0.0000  24.8920   0.0000   0.0000   0.0000  24.8920 " ConfE="      -5945.0674" DelE="          0.1313"
Co     3.54576955   -0.05851729    0.00031717       1
Co    -0.04667595    3.53182126   -0.02837596       2
Cr    -3.54264095   -0.05533131   -0.01031191       3
Ni    -0.00229113   -3.61037137    0.02527594       4
Co    -0.06392630   -0.04377224   -3.58021492       5
Co    -0.02433603   -0.07481947    3.60113444       6
Ni     1.68307211   -0.06401396   -1.75335037       7
Cr     1.73455438   -0.03526087    1.78363821       8
Co    -0.06834678    1.71777598   -1.77556996       9
Cr    -0.03139259    1.60490626    1.69429588      10
Cr     1.75484894   -1.76362814   -0.02762734      11
Co    -1.79030514    1.68862270   -0.01962198      12
Co    -1.74504163   -1.81583092    0.07147496      13
Ni    -0.01734427   -1.82162237   -1.72826235      14
Cr    -0.02419863   -1.66182769    1.70781032      15
Ni    -1.77932894   -0.08306797   -1.75598442      16
Co    -1.73800050   -0.04776194    1.75422577      17
Ni     1.69451228    1.67705403   -0.01961630      18
