          18
Lattice="  24.8920   0.0000   0.0000   0.0000  24.8920   0.0000   0.0000   0.0000  24.8920 " ConfE="      -5940.2953" DelE="          0.0000"
Ni    -0.01130425   -3.46377557   -0.01717183       1
Ni    -0.00716603    0.00582081    3.51995352       2
Ni     0.03694287    3.55831614   -0.01953529       3
Ni    -3.54701860    0.01936659   -0.02807980       4
Cr     3.59214108    0.03479382    0.02913609       5
Co     0.03014445    0.07611324   -3.60199697       6
Ni     1.76944724   -1.73062282    0.01815083       7
Cr     1.76926139   -0.00557203    1.79931254       8
Ni     1.78943172    0.04021539   -1.78144410       9
Ni     0.02828811    1.80319358    1.74195585      10
Co    -1.72102887   -0.10782633    1.73996911      11
Cr    -1.81282088   -1.74478131    0.00699382      12
Ni    -1.76080439    0.03612078   -1.80084888      13
Co     0.02990312   -1.70638469   -1.83257557      14
Co     1.83904762    1.77587893   -0.02317389      15
Cr     0.05678982    1.80483430   -1.81916351      16
Co    -1.75157779    1.82424763   -0.04001051      17
Ni     0.00000000    0.00000000    0.00000000      18
          18
Lattice="  24.8920   0.0000   0.0000   0.0000  24.8920   0.0000   0.0000   0.0000  24.8920 " ConfE="      -5939.6511" DelE="          0.6442"
Ni     0.00584615   -3.42744052   -0.01952501       1
Ni    -0.00881808    0.01601105    3.48980368       2
Ni     0.03881802    3.56241855   -0.00959365       3
Ni    -3.58105279    0.02551346   -0.03236266       4
Cr     3.64328708    0.04878239    0.00978659       5
Co     0.03040025    0.07263519   -3.61185061       6
Ni     1.93278875   -1.77070904   -0.05665809       7
Cr     1.91309984    0.02717563    1.80413175       8
Ni     1.79526772    0.03310331   -1.77559835       9
Ni     0.03665356    1.75336876    1.70987307      10
Co    -1.90667798   -0.02324580    1.82313490      11
Cr    -1.93047221   -1.78841243   -0.03450743      12
Ni    -1.74789760    0.03023389   -1.76581428      13
Co     0.03158520   -1.67889372   -1.78941914      14
Co     1.82176889    1.74615840   -0.02755617      15
Cr     0.05682230    1.74669936   -1.75378005      16
Co    -1.72659795    1.78291692   -0.02653176      17
Ni    -0.00476762   -0.61240794    0.61815689      18
          18
Lattice="  24.8920   0.0000   0.0000   0.0000  24.8920   0.0000   0.0000   0.0000  24.8920 " ConfE="      -5939.7105" DelE="          0.5848"
Ni     0.01229900   -3.42598018   -0.00013303       1
Ni    -0.00553355    0.01004872    3.46807849       2
Ni     0.04150560    3.55492401   -0.00519279       3
Ni    -3.60284539    0.02893318   -0.04277196       4
Cr     3.66504639    0.06053222   -0.00231131       5
Co     0.02913398    0.06673398   -3.60311084       6
Ni     1.94519995   -1.76442966   -0.05883819       7
Cr     1.96912620    0.06436376    1.78876450       8
Ni     1.78860399    0.03482054   -1.75544352       9
Ni     0.04280225    1.72814537    1.69173321      10
Co    -1.94066313    0.02896822    1.78591003      11
Cr    -1.91602345   -1.76656344   -0.02525711      12
Ni    -1.74580840    0.02902157   -1.75320720      13
Co     0.03294290   -1.67296572   -1.75795122      14
Co     1.83116941    1.74674217   -0.02545966      15
Cr     0.05205390    1.73705712   -1.73961008      16
Co    -1.73252315    1.79155317   -0.03633838      17
Ni     0.02540961   -0.87351656    0.96652463      18
