          18
Lattice="  24.8920   0.0000   0.0000   0.0000  24.8920   0.0000   0.0000   0.0000  24.8920 " ConfE="      -5934.6731" DelE="          0.0000"
Co    -0.05105557   -3.50465796   -0.00379061       1
Cr     3.33949659   -0.04886406    0.02823733       2
Cr    -0.05131672    3.64489582   -0.02385905       3
Cr    -3.65091935    0.06940255   -0.01387982       4
Co    -0.01442284    0.00404207   -3.56225660       5
Cr    -0.08009101    0.07035092    3.53633369       6
Ni    -0.05723054   -1.75161782   -1.76228494       7
Cr    -0.00389730   -1.78540608    1.67213267       8
Cr     1.68860187   -0.03275033   -1.69459327       9
Co     1.70186287    0.01727002    1.74890863      10
Co    -1.88348524   -1.73499378   -0.00566073      11
Co     1.69004827    1.87325494   -0.01724929      12
Co    -1.84007358    1.82572853   -0.01491946      13
Ni    -1.83713038    0.05407695   -1.79739830      14
Cr    -1.83233860    0.06097057    1.72983484      15
Ni    -0.07805973    1.83492434   -1.80411151      16
Co    -0.05642084    1.82615363    1.74044265      17
Cr     0.00000000    0.00000000    0.00000000      18
          18
Lattice="  24.8920   0.0000   0.0000   0.0000  24.8920   0.0000   0.0000   0.0000  24.8920 " ConfE="      -5933.9139" DelE="          0.7593"
Co    -0.05617420   -3.50198886   -0.02134182       1
Cr     3.41870641    0.01005383    0.02250810       2
Cr    -0.02797865    3.61831475   -0.03142163       3
Cr    -3.60550806    0.05254337   -0.00980195       4
Co    -0.03459771    0.02981403   -3.63567506       5
Cr    -0.11810679    0.10720088    3.61350910       6
Ni    -0.12416385   -1.77214121   -1.93475142       7
Cr    -0.12253645   -1.78581654    1.86272637       8
Cr     1.65722179    0.07425736   -1.89976307       9
Co     1.68694088    0.06772667    1.87585260      10
Co    -1.75008483   -1.69405589   -0.01134400      11
Co     1.66496680    1.73858619   -0.03095813      12
Co    -1.83520240    1.82362528   -0.01714816      13
Ni    -1.79799399    0.04793376   -1.78901756      14
Cr    -1.66836901    0.09333102    1.59632540      15
Ni    -0.08432822    1.80510306   -1.78613943      16
Co    -0.04913708    1.78100269    1.70720520      17
Cr     1.04180421   -1.09665140   -0.02075123      18
          18
Lattice="  24.8920   0.0000   0.0000   0.0000  24.8920   0.0000   0.0000   0.0000  24.8920 " ConfE="      -5934.3630" DelE="          0.3102"
Co    -0.08102779   -3.55281947   -0.01659442       1
Cr     3.48861811    0.04440685    0.02514916       2
Cr    -0.05238981    3.64788735   -0.02362467       3
Cr    -3.65447240    0.06807612   -0.00827917       4
Co    -0.02582360    0.01469459   -3.58795025       5
Cr    -0.09354496    0.07922804    3.54590312       6
Ni    -0.07892713   -1.70068039   -1.75121669       7
Cr    -0.09299399   -1.69796637    1.68758466       8
Cr     1.63968674    0.05861832   -1.66727922       9
Co     1.65930775    0.05684094    1.72240720      10
Co    -1.83004180   -1.69786972    0.00363749      11
Co     1.67168830    1.81529609   -0.03015310      12
Co    -1.85086482    1.82809809   -0.00979847      13
Ni    -1.84140767    0.06721349   -1.77865866      14
Cr    -1.77998879    0.10448384    1.65338711      15
Ni    -0.09904792    1.82670590   -1.77715894      16
Co    -0.07244504    1.80192589    1.70933726      17
Cr     1.66153205   -1.67515184    0.00703445      18
