          18
Lattice="  24.8920   0.0000   0.0000   0.0000  24.8920   0.0000   0.0000   0.0000  24.8920 " ConfE="      -5937.7942" DelE="          0.0000"
Ni    -3.58702792    0.02919284   -0.01050257       1
Co     0.02009520    0.00734323   -3.53839322       2
Co     3.53141395    0.01482987   -0.01590748       3
Cr    -0.03130417    0.00336298    3.53612364       4
Cr    -0.03371244    3.54433271   -0.01551252       5
Co    -0.06056599   -3.51757541   -0.04043585       6
Ni     0.01284809   -1.71178456   -1.76016349       7
Ni     1.75562260    1.74809738   -0.02396820       8
Ni    -1.81180396    0.02635544   -1.78823884       9
Ni    -1.81371295    1.79141309    0.01467647      10
Co    -0.06383039    1.82688168   -1.76941109      11
Cr     1.71746928   -1.68566765   -0.01439918      12
Ni    -0.02177913    1.79803902    1.76605411      13
Co    -1.75952947    0.01326907    1.79423667      14
Cr    -1.76105883   -1.72600203   -0.03917690      15
Co     1.73148878    0.00905077    1.78934425      16
Co    -0.04821861   -1.75569030    1.75745609      17
Co     0.00000000    0.00000000    0.00000000      18
          18
Lattice="  24.8920   0.0000   0.0000   0.0000  24.8920   0.0000   0.0000   0.0000  24.8920 " ConfE="      -5937.1698" DelE="          0.6244"
Ni    -3.60393740    0.03751365   -0.01812380       1
Co     0.05540363   -0.00580696   -3.45284273       2
Co     3.47241935    0.03921393   -0.04007149       3
Cr    -0.00950894    0.00683382    3.53118991       4
Cr    -0.04966147    3.64213445    0.01169417       5
Co    -0.07764532   -3.58818367   -0.03876456       6
Ni    -0.11047853   -1.89407696   -1.79522462       7
Ni     1.79778854    1.93923679    0.04421926       8
Ni    -1.75980410    0.01842032   -1.74467558       9
Ni    -1.77677758    1.78688891    0.00690188      10
Co    -0.08641856    1.94366423   -1.79251432      11
Cr     1.76686552   -1.82721463   -0.04116321      12
Ni    -0.00791475    1.79011864    1.72912866      13
Co    -1.72218865    0.00628596    1.73164103      14
Cr    -1.74715344   -1.69640385   -0.00184699      15
Co     1.70310893    0.01661248    1.70766357      16
Co    -0.03545748   -1.72536281    1.63435020      17
Co     0.77017521    0.00126866   -0.75301393      18
          18
Lattice="  24.8920   0.0000   0.0000   0.0000  24.8920   0.0000   0.0000   0.0000  24.8920 " ConfE="      -5937.9855" DelE="         -0.1913"
Ni    -3.60087136    0.03066271   -0.00969638       1
Co    -0.02215589    0.00109529   -3.57576703       2
Co     3.57493213    0.02835282    0.00414777       3
Cr    -0.03446042    0.01186190    3.57204387       4
Cr    -0.04002047    3.58886858   -0.00110495       5
Co    -0.06642072   -3.54458810   -0.03857622       6
Ni    -0.02679858   -1.70808608   -1.71889031       7
Ni     1.72657340    1.75722419    0.00069093       8
Ni    -1.78084274    0.02225308   -1.75242831       9
Ni    -1.78328083    1.77227899    0.01925032      10
Co    -0.06575786    1.81947517   -1.76265023      11
Cr     1.67439151   -1.67897736    0.04115979      12
Ni    -0.01988667    1.77528483    1.75170095      13
Co    -1.73538446    0.00297878    1.76464384      14
Cr    -1.74566823   -1.70461174    0.00535428      15
Co     1.70278537   -0.00570058    1.72802598      16
Co    -0.04987566   -1.72669575    1.69610272      17
Co     1.74836701   -0.01250722   -1.75154784      18
