          18
Lattice="  24.8920   0.0000   0.0000   0.0000  24.8920   0.0000   0.0000   0.0000  24.8920 " ConfE="      -5949.9130" DelE="          0.0000"
Ni    -0.14141951   -3.54747108    0.05623675       1
Co    -0.15248204    0.03262772   -3.43269386       2
Cr     3.23002574   -0.00733119    0.01567480       3
Ni    -3.70819171   -0.01315473    0.05511569       4
Cr    -0.09450050    3.49606312    0.06881215       5
Cr    -0.15252954    0.02880964    3.65023830       6
Ni    -0.12549826   -1.75516733   -1.71965030       7
Ni    -1.94510567   -0.01047199   -1.70559602       8
Co     1.62979514   -1.74342309    0.05797521       9
Co     1.61355452    1.73263698    0.05541566      10
Ni    -0.14350605   -1.77142030    1.85736466      11
Cr    -0.09716293    1.75134794   -1.73737985      12
Cr    -1.87749985   -1.76275772    0.04765367      13
Co    -1.89193860    0.01063536    1.80554490      14
Cr     1.63719586   -0.00404873    1.88072508      15
Cr    -1.84234538    1.76144555    0.07523886      16
Co    -0.13030437    1.73624378    1.83640296      17
Cr     0.00000000    0.00000000    0.00000000      18
          18
Lattice="  24.8920   0.0000   0.0000   0.0000  24.8920   0.0000   0.0000   0.0000  24.8920 " ConfE="      -5949.3365" DelE="          0.5765"
Ni    -0.17107945   -3.60708402    0.06626649       1
Co    -0.17196136    0.00768957   -3.46132361       2
Cr     3.31005829    0.01705623    0.05737563       3
Ni    -3.70872728   -0.00325201    0.04174186       4
Cr    -0.12834720    3.59540452    0.15011010       5
Cr    -0.13868381    0.03254578    3.61375195       6
Ni    -0.19940909   -1.88755418   -1.74164486       7
Ni    -1.85375630    0.01252928   -1.69056493       8
Co     1.59157758   -1.79846190    0.06881047       9
Co     1.61375026    1.85342890    0.12344289      10
Ni    -0.15630103   -1.74804651    1.81009977      11
Cr    -0.16990395    1.96093168   -1.75072474      12
Cr    -1.83647570   -1.69901734    0.03662905      13
Co    -1.90290568    0.01711390    1.78913121      14
Cr     1.60358414   -0.00523257    1.78266684      15
Cr    -1.71745004    1.65356994    0.07674186      16
Co    -0.12887104    1.68813414    1.77072397      17
Cr     0.87855417    0.06057994   -1.06801007      18
          18
Lattice="  24.8920   0.0000   0.0000   0.0000  24.8920   0.0000   0.0000   0.0000  24.8920 " ConfE="      -5949.8385" DelE="          0.0745"
Ni    -0.16200888   -3.58466088    0.06161937       1
Co    -0.18711303    0.01471757   -3.47006153       2
Cr     3.37456931    0.02383380    0.06086442       3
Ni    -3.73657363   -0.00905654    0.05667726       4
Cr    -0.12016474    3.55297000    0.10801017       5
Cr    -0.14914478    0.04407495    3.59542991       6
Ni    -0.17141935   -1.76081523   -1.67642421       7
Ni    -1.90443061    0.00662284   -1.65387189       8
Co     1.60339393   -1.73842958    0.07131445       9
Co     1.58516225    1.72901120    0.07813447      10
Ni    -0.17575663   -1.75620340    1.81290738      11
Cr    -0.16822876    1.77309393   -1.64046108      12
Cr    -1.93867223   -1.78425345    0.04097516      13
Co    -1.90496925    0.01202607    1.76995419      14
Cr     1.58075725   -0.02394630    1.70780306      15
Cr    -1.87626678    1.77523921    0.10819734      16
Co    -0.15204273    1.70248676    1.76583759      17
Cr     1.53812600    0.01912269   -1.57791387      18
