          18
Lattice="  24.8920   0.0000   0.0000   0.0000  24.8920   0.0000   0.0000   0.0000  24.8920 " ConfE="      -5945.5715" DelE="          0.0000"
Co    -3.57297527    0.01984302   -0.01763472       1
Cr    -0.03710922   -0.02243002   -3.49509417       2
Cr     3.44106858    0.00591855    0.01148518       3
Co    -0.02654666    0.00808026    3.59845479       4
Co    -0.01921068    3.54796065    0.01659269       5
Cr     0.01442685   -3.49369960   -0.03408182       6
Co    -1.77829286    1.75258763   -0.01270656       7
Ni    -1.81071065   -1.71349735   -0.00750143       8
Co    -0.05532265    1.69388862   -1.77380109       9
Ni    -0.08500703   -1.73537933   -1.77846831      10
Cr    -1.73136327    0.04590306    1.78082865      11
Co     1.78275287   -0.03510654   -1.79135514      12
Co     1.72808721    0.01859148    1.81665119      13
Co    -0.01097217    1.77173951    1.81209961      14
Cr    -0.02325467   -1.72617536    1.81281369      15
Cr     1.73525813    1.75667145   -0.05315473      16
Co     1.74672822   -1.76900149    0.01160948      17
Co     0.00000000    0.00000000    0.00000000      18
          18
Lattice="  24.8920   0.0000   0.0000   0.0000  24.8920   0.0000   0.0000   0.0000  24.8920 " ConfE="      -5944.6136" DelE="          0.9580"
Co    -3.45815747    0.00863670   -0.03663908       1
Cr    -0.19452992   -0.07712961   -3.37394459       2
Cr     3.44793178    0.01037509   -0.00208563       3
Co    -0.03501353    0.00679609    3.58674201       4
Co     0.00675538    3.62081542    0.03873943       5
Cr     0.04623653   -3.59541847   -0.01651355       6
Co    -1.80547439    1.95368465    0.01573707       7
Ni    -1.83350742   -1.93823334    0.04243789       8
Co    -0.00472752    1.89898171   -1.81298971       9
Ni    -0.02150746   -1.94523228   -1.78164466      10
Cr    -1.68275769    0.04102873    1.67348543      11
Co     1.66015407   -0.02743526   -1.75175938      12
Co     1.66684638    0.01997570    1.75093577      13
Co    -0.02799617    1.76327783    1.77237463      14
Cr    -0.03058398   -1.69690635    1.74558856      15
Cr     1.67761272    1.71025306   -0.06961171      16
Co     1.70289120   -1.74674205    0.01484323      17
Co    -0.83822963    0.01855450   -0.77224090      18
          18
Lattice="  24.8920   0.0000   0.0000   0.0000  24.8920   0.0000   0.0000   0.0000  24.8920 " ConfE="      -5945.4700" DelE="          0.1015"
Co    -3.60214492    0.01189732    0.00095012       1
Cr     0.00516787   -0.03701135   -3.52852143       2
Cr     3.47523768    0.00264375    0.01605737       3
Co    -0.02332708    0.00758337    3.60819354       4
Co    -0.00915093    3.56630148    0.02480901       5
Cr     0.03931502   -3.53434244   -0.03379489       6
Co    -1.75038604    1.74823644    0.02136410       7
Ni    -1.75667930   -1.71386061    0.02183517       8
Co    -0.01055955    1.69059921   -1.71882019       9
Ni    -0.04808302   -1.74150495   -1.74759701      10
Cr    -1.68735870    0.05897926    1.70589444      11
Co     1.74857005   -0.02804007   -1.74767973      12
Co     1.69336635    0.01354457    1.77648098      13
Co    -0.00829817    1.73632161    1.78009456      14
Cr    -0.01202626   -1.68844413    1.79085990      15
Cr     1.72170738    1.70789581   -0.05883516      16
Co     1.71019093   -1.73053671    0.02280877      17
Co    -1.80121177    0.02881486   -1.75312849      18
