          23
Lattice="  24.8920   0.0000   0.0000   0.0000  24.8920   0.0000   0.0000   0.0000  24.8920 " ConfE="      -5945.1314" DelE="          0.0000"
Ni     2.47839295   -2.51312356   -0.05300265       1
Ni    -2.69486640    2.70474955   -0.01370332       2
Ni     0.77380614   -2.56829201   -1.82980990       3
Co     2.53355598   -0.74963921   -1.81928602       4
Co     2.53512596   -0.81875907    1.74175492       5
Co     0.82111733   -2.58731431    1.78302407       6
Co    -2.70329259    0.95091951   -1.76500419       7
Cr    -0.94410130    2.62836556   -1.77712343       8
Ni    -2.71414563    0.94958576    1.74776460       9
Co    -0.88956742    2.67963038    1.73448155      10
Co     0.78058818   -0.77267797   -3.64235404      11
Ni     0.77063271   -0.84079422    3.57516137      12
Co    -0.99787146    0.97311048    3.57400906      13
Cr    -0.99028546    0.99556665   -3.65525420      14
Ni    -0.93176949   -2.52559319   -0.01275946      15
Cr     2.50385900    0.85000760   -0.05009596      16
Cr     0.73789571    2.57425542    0.01154187      17
Cr    -2.65538362   -0.71890555   -0.00920843      18
Ni     0.00000000    0.00000000    0.00000000      19
Ni    -1.02801566   -0.83579370   -1.94063346      20
Co     0.79550335    1.01509641   -1.98836214      21
Cr     0.85415263    0.93914904    1.92756332      22
Co    -1.06635039   -0.85224367    1.91202988      23
          23
Lattice="  24.8920   0.0000   0.0000   0.0000  24.8920   0.0000   0.0000   0.0000  24.8920 " ConfE="      -5945.0872" DelE="          0.0441"
Ni     2.52514691   -2.55758350   -0.05022764       1
Ni    -2.71620561    2.71605501   -0.01825261       2
Ni     0.77167718   -2.54032046   -1.78495075       3
Co     2.54169136   -0.74348253   -1.80338940       4
Co     2.54304061   -0.81965877    1.71822893       5
Co     0.81708539   -2.58348234    1.75586948       6
Co    -2.71363084    0.95809399   -1.75897379       7
Cr    -0.95475166    2.62661795   -1.76965765       8
Ni    -2.71629122    0.94842843    1.72856309       9
Co    -0.89466111    2.66542660    1.71578745      10
Co     0.77573974   -0.75526199   -3.60934938      11
Ni     0.76507050   -0.83495067    3.54193583      12
Co    -1.00319506    0.96770012    3.56445147      13
Cr    -0.99302852    0.99798491   -3.64968721      14
Ni    -0.96431820   -2.57760314   -0.00716140      15
Cr     2.56391394    0.88815126   -0.04225905      16
Cr     0.73124489    2.54526688    0.00905514      17
Cr    -2.66728735   -0.73219005   -0.00159875      18
Ni     0.29892241   -0.30998047    0.01990288      19
Ni    -1.03616614   -0.80990799   -1.88259975      20
Co     0.76028538    1.02299820   -1.91060061      21
Cr     0.82310653    0.95565887    1.89515557      22
Co    -1.07917196   -0.84221353    1.86393039      23
          23
Lattice="  24.8920   0.0000   0.0000   0.0000  24.8920   0.0000   0.0000   0.0000  24.8920 " ConfE="      -5945.4013" DelE="         -0.2699"
Ni     2.53883943   -2.58995766   -0.05029314       1
Ni    -2.70701971    2.72139918   -0.02414231       2
Ni     0.77313067   -2.58867493   -1.80906829       3
Co     2.56574491   -0.75490103   -1.81980092       4
Co     2.58476931   -0.85663991    1.75899825       5
Co     0.81900596   -2.62652479    1.76859221       6
Co    -2.72863907    0.96051042   -1.76703714       7
Cr    -0.94996376    2.67151164   -1.77969519       8
Ni    -2.72347456    0.95049092    1.72478639       9
Co    -0.90577356    2.68725879    1.71604464      10
Co     0.76874333   -0.73656131   -3.56494153      11
Ni     0.75574477   -0.82946041    3.51027272      12
Co    -1.00674758    0.95786747    3.53859819      13
Cr    -0.94937783    0.98124912   -3.58457574      14
Ni    -0.99070758   -2.63760304   -0.01166802      15
Cr     2.58551163    0.92535133   -0.00151641      16
Cr     0.75129872    2.64013512    0.03130624      17
Cr    -2.71092141   -0.74797289    0.00692655      18
Ni     0.75694030   -0.80874406   -0.00442017      19
Ni    -1.01097651   -0.79555250   -1.76517724      20
Co     0.71686968    1.00783332   -1.70729038      21
Cr     0.79330022    0.90074734    1.74983287      22
Co    -1.02222419   -0.80946158    1.71624257      23
