          18
Lattice="  24.8920   0.0000   0.0000   0.0000  24.8920   0.0000   0.0000   0.0000  24.8920 " ConfE="      -5927.4835" DelE="          0.0000"
Ni    -0.06450377   -3.42831911   -0.15885599       1
Ni     3.48900940    0.13110491   -0.20273157       2
Cr    -0.03368658    0.11613584    3.27243795       3
Cr    -3.65721749    0.14739010   -0.19411193       4
Cr    -0.07887712    0.15667161   -3.74020739       5
Cr    -0.05899330    3.72851171   -0.19155064       6
Cr    -1.79021517   -1.67985243   -0.11804031       7
Cr    -1.82528464    0.14492808    1.59669236       8
Cr     1.69248483   -1.67137213   -0.20164320       9
Co     1.72696695    0.09988284    1.58458565      10
Co    -0.10875396   -1.65271642   -1.98200627      11
Cr    -1.79918143    0.11224857   -1.94327571      12
Cr    -1.85855455    1.93687058   -0.18312096      13
Cr    -0.03508395    1.90751284   -1.93049897      14
Cr    -0.03945137    1.94820122    1.58523196      15
Co     1.67105739    0.12835464   -1.96200570      16
Co     1.68974652    1.90765421   -0.17940289      17
Cr     0.00000000    0.00000000    0.00000000      18
          18
Lattice="  24.8920   0.0000   0.0000   0.0000  24.8920   0.0000   0.0000   0.0000  24.8920 " ConfE="      -5926.5003" DelE="          0.9832"
Ni    -0.08887411   -3.40017190   -0.15883797       1
Ni     3.47185635    0.15056668   -0.22109352       2
Cr     0.01632480    0.14416904    3.40921381       3
Cr    -3.71127647    0.21862388   -0.29309130       4
Cr    -0.03419961    0.13273523   -3.73768193       5
Cr    -0.09783113    3.72011447   -0.15151899       6
Cr    -1.98826761   -1.58278817   -0.22553094       7
Cr    -1.99747568    0.15428318    1.70977096       8
Cr     1.83548256   -1.73731517   -0.26876253       9
Co     1.81230056    0.14123533    1.59138573      10
Co    -0.15531081   -1.77091205   -1.97451850      11
Cr    -1.64580821    0.05758222   -1.99369678      12
Cr    -1.66288029    1.63026374   -0.14549032      13
Cr    -0.01700504    2.02737332   -1.96868833      14
Cr    -0.01688721    1.82574935    1.62385660      15
Co     1.07390892    0.13144271   -1.38273173      16
Co     1.66119399    1.99397896   -0.05331076      17
Cr    -0.04808940   -0.98028316    0.89761739      18
          18
Lattice="  24.8920   0.0000   0.0000   0.0000  24.8920   0.0000   0.0000   0.0000  24.8920 " ConfE="      -5927.8459" DelE="         -0.3625"
Ni    -0.06002444   -3.44861817   -0.20529699       1
Ni     3.45335740    0.14973789   -0.25730468       2
Cr    -0.02621023    0.15658071    3.36579810       3
Cr    -3.62370434    0.15683572   -0.20527046       4
Cr    -0.05191698    0.13741244   -3.70187653       5
Cr    -0.05180812    3.67252209   -0.21335448       6
Cr    -1.82114267   -1.65863400   -0.20528825       7
Cr    -1.81158222    0.19973143    1.57025161       8
Cr     1.69935913   -1.61924543   -0.28443136       9
Co     1.72913276    0.14146221    1.57178311      10
Co    -0.07500206   -1.62182200   -1.97001320      11
Cr    -1.84923954    0.14369794   -1.97789472      12
Cr    -1.83681961    1.93853040   -0.21656837      13
Cr     0.18202502    1.78705599   -2.01112188      14
Cr    -0.02007600    1.90865565    1.57588775      15
Co    -0.04085286    0.16969812   -0.25364942      16
Co     1.71461996    1.91137017   -0.22531188      17
Cr    -0.03322751   -1.58593888    1.51836973      18
