          18
Lattice="  24.8920   0.0000   0.0000   0.0000  24.8920   0.0000   0.0000   0.0000  24.8920 " ConfE="      -5940.4863" DelE="          0.0000"
Ni    -3.51157899    0.03262575    0.02518396       1
Co     0.00070918   -3.43213186    0.07289055       2
Ni     3.59234310    0.05693439    0.02085091       3
Cr    -0.01915418    3.62481575    0.02379793       4
Co     0.02909251    0.04291802   -3.48785688       5
Cr    -0.00844917    0.08247634    3.61987239       6
Ni    -1.75688964    0.03000617   -1.73902408       7
Co    -1.77066520    0.02604432    1.79939270       8
Co     0.00376781   -1.68093997   -1.67130212       9
Ni    -0.01704017   -1.69426001    1.79887739      10
Co    -1.74011784    1.86063162    0.04582016      11
Cr     1.81558779   -1.72340402    0.04852523      12
Ni     1.79499715    1.83501622    0.02716941      13
Ni     0.02265369    1.82431253   -1.75038429      14
Cr    -0.03660041    1.78870180    1.78220494      15
Cr     1.74930077    0.01617798   -1.72146151      16
Co     1.78166832    0.06415643    1.77956721      17
Cr     0.00000000    0.00000000    0.00000000      18
          18
Lattice="  24.8920   0.0000   0.0000   0.0000  24.8920   0.0000   0.0000   0.0000  24.8920 " ConfE="      -5939.7428" DelE="          0.7435"
Ni    -3.49519375    0.04122981    0.02312667       1
Co    -0.00111624   -3.39255245    0.08450561       2
Ni     3.59928819    0.04991458    0.02278540       3
Cr    -0.03265803    3.57827914    0.03105243       4
Co     0.03168152    0.05481735   -3.56436325       5
Cr     0.01411077    0.11299197    3.70119129       6
Ni    -1.78641329    0.08908741   -1.88615322       7
Co    -1.79327331    0.04070517    1.91275653       8
Co     0.03720437   -1.70342343   -1.80761854       9
Ni     0.04750604   -1.68255445    1.91525744      10
Co    -1.69937212    1.75892062    0.05410087      11
Cr     1.77025097   -1.69017024    0.05774526      12
Ni     1.76328782    1.79202796    0.02294252      13
Ni     0.01848024    1.77475382   -1.74441886      14
Cr    -0.06919067    1.65963801    1.72478914      15
Cr     1.63489720   -0.03262940   -1.62684568      16
Co     1.73678633    0.06056118    1.74899262      17
Cr    -0.99808405   -0.91355299    0.00209448      18
          18
Lattice="  24.8920   0.0000   0.0000   0.0000  24.8920   0.0000   0.0000   0.0000  24.8920 " ConfE="      -5940.5270" DelE="         -0.0406"
Ni    -3.55466790    0.05640025    0.03646992       1
Co     0.03168644   -3.48764166    0.05843345       2
Ni     3.61243036    0.05702347    0.02008805       3
Cr    -0.02660175    3.61270600    0.02288569       4
Co     0.02567231    0.04181783   -3.51914217       5
Cr    -0.00334873    0.09725234    3.62535213       6
Ni    -1.73340800    0.03570521   -1.71615986       7
Co    -1.74802654    0.05249571    1.80372170       8
Co     0.03905428   -1.65363189   -1.65095945       9
Ni     0.02337313   -1.65598033    1.77934776      10
Co    -1.70092778    1.80236858    0.06808728      11
Cr     1.76892287   -1.67935005    0.03442735      12
Ni     1.77599306    1.80816399    0.02494787      13
Ni     0.03243779    1.79100202   -1.72852993      14
Cr    -0.02916823    1.80048754    1.77347374      15
Cr     1.72096860   -0.00007710   -1.67284241      16
Co     1.76230020    0.07545044    1.75020864      17
Cr    -1.74285037   -1.74159049    0.07408139      18
