          18
Lattice="  24.8920   0.0000   0.0000   0.0000  24.8920   0.0000   0.0000   0.0000  24.8920 " ConfE="      -5934.6771" DelE="          0.0000"
Ni    -0.02238077    0.00185707    3.51704569       1
Cr    -0.03641710    3.40438177   -0.01232031       2
Cr    -0.00624502    0.05045593   -3.56002073       3
Ni    -0.00010293   -3.55379845   -0.01273320       4
Ni    -3.56596451   -0.01391578   -0.01457045       5
Cr     3.53191101    0.00191227   -0.06482988       6
Ni    -1.77827728    0.00960448    1.76491424       7
Ni     1.74931397   -0.02048302    1.74913857       8
Co    -1.74519988    1.79987612    0.02664121       9
Cr     1.68316585    1.73604413    0.03052920      10
Co     0.02189215   -1.85724895    1.80280234      11
Co    -0.01401299    1.76689949   -1.83614902      12
Co     0.03936094   -1.82167451   -1.82530234      13
Ni    -1.76901709   -1.78693535   -0.00617102      14
Co     1.81832381   -1.84095951   -0.06152219      15
Ni    -1.78130272   -0.01325337   -1.78384678      16
Ni     1.75246857   -0.01096441   -1.80569451      17
Ni     0.00000000    0.00000000    0.00000000      18
          18
Lattice="  24.8920   0.0000   0.0000   0.0000  24.8920   0.0000   0.0000   0.0000  24.8920 " ConfE="      -5934.1370" DelE="          0.5401"
Ni    -0.01411194    0.00234423    3.51450300       1
Cr    -0.01115150    3.36332538   -0.03499826       2
Cr    -0.00305512    0.05856335   -3.57641765       3
Ni    -0.00213991   -3.54689192   -0.00390870       4
Ni    -3.61344494   -0.03957278   -0.02358717       5
Cr     3.57342514   -0.02219617   -0.05848061       6
Ni    -1.88142745   -0.01250187    1.79318401       7
Ni     1.86365796   -0.05699590    1.78647915       8
Co    -1.97834919    1.82730795   -0.08600296       9
Cr     1.94678524    1.81735810   -0.06524707      10
Co     0.02565794   -1.80351303    1.78048953      11
Co    -0.00459062    1.76824682   -1.78702638      12
Co     0.04363725   -1.78402638   -1.79743000      13
Ni    -1.75146953   -1.75437702    0.00042988      14
Co     1.81543607   -1.81353366   -0.04735878      15
Ni    -1.75721123   -0.01205796   -1.76769964      16
Ni     1.73967624   -0.00003314   -1.77415917      17
Ni     0.01243227    0.75567038    0.60797721      18
          18
Lattice="  24.8920   0.0000   0.0000   0.0000  24.8920   0.0000   0.0000   0.0000  24.8920 " ConfE="      -5934.8120" DelE="         -0.1349"
Ni    -0.02221817   -0.03123529    3.56030442       1
Cr    -0.01830090    3.49427075   -0.06515831       2
Cr    -0.00562841    0.03592394   -3.58049012       3
Ni    -0.00309424   -3.57585595   -0.01254523       4
Ni    -3.57408552   -0.02906408   -0.01791597       5
Cr     3.55834131   -0.00914681   -0.07460633       6
Ni    -1.78027380   -0.02230829    1.74789252       7
Ni     1.73574142   -0.05149270    1.70172945       8
Co    -1.77452465    1.77801665   -0.04134476       9
Cr     1.67841224    1.69240965   -0.05832713      10
Co     0.02441167   -1.84150101    1.79423483      11
Co    -0.00017636    1.75368087   -1.76851206      12
Co     0.04590236   -1.83349118   -1.81964768      13
Ni    -1.72268698   -1.76661773   -0.00515642      14
Co     1.80826018   -1.84204890   -0.06391853      15
Ni    -1.73035344   -0.03248715   -1.75851092      16
Ni     1.72057207   -0.03435352   -1.78090131      17
Ni    -0.02291264    1.70401719    1.71856071      18
