          18
Lattice="  24.8920   0.0000   0.0000   0.0000  24.8920   0.0000   0.0000   0.0000  24.8920 " ConfE="      -5950.6354" DelE="          0.0000"
Co    -0.16491028   -0.00126791    3.42369512       1
Cr     3.31366137   -0.03730125   -0.07567529       2
Ni    -0.18244689    0.01016411   -3.64286941       3
Cr    -0.03640654   -3.52912395   -0.12006899       4
Cr    -3.73734217    0.01999550   -0.08401389       5
Co    -0.11883159    3.53573903   -0.05040917       6
Ni    -0.10782008   -1.77001414    1.70973658       7
Co     1.65219487   -1.69797614   -0.06103312       8
Ni    -0.15389686   -1.75559304   -1.87613193       9
Ni    -0.12871696    1.76938544   -1.84925090      10
Cr    -0.08669934    1.69666297    1.69808638      11
Co     1.64608052    1.73356780   -0.01904397      12
Ni    -1.89640931    1.75898693   -0.05853869      13
Co     1.63416483    0.00916702   -1.89889934      14
Co    -1.97459865   -0.03484995    1.68380364      15
Cr    -1.94168606    0.04836483   -1.84200517      16
Cr    -1.91654255   -1.72428330   -0.05962969      17
Cr     0.00000000    0.00000000    0.00000000      18
          18
Lattice="  24.8920   0.0000   0.0000   0.0000  24.8920   0.0000   0.0000   0.0000  24.8920 " ConfE="      -5949.8968" DelE="          0.7386"
Co    -0.15896362   -0.01906642    3.41225846       1
Cr     3.36543089   -0.02971117   -0.09712695       2
Ni    -0.18057950    0.00485096   -3.62886253       3
Cr    -0.08007794   -3.65659962   -0.13164943       4
Cr    -3.70293714    0.01252950   -0.06732846       5
Co    -0.14637954    3.60141965   -0.06292619       6
Ni    -0.16277443   -1.89200674    1.71988056       7
Co     1.61333299   -1.83183185   -0.11030985       8
Ni    -0.16822081   -1.75409571   -1.83287004       9
Ni    -0.14514306    1.75260138   -1.81392548      10
Cr    -0.16983480    1.84000675    1.69039739      11
Co     1.65511304    1.88548779   -0.10767508      12
Ni    -1.87900007    1.75542786   -0.06299498      13
Co     1.59195856    0.00640945   -1.75826222      14
Co    -1.86807469   -0.02865021    1.65526183      15
Cr    -1.92526039    0.03842908   -1.81700861      16
Cr    -1.83788062   -1.63765023   -0.03936123      17
Cr     0.88011907    0.03698304    0.93397055      18
          18
Lattice="  24.8920   0.0000   0.0000   0.0000  24.8920   0.0000   0.0000   0.0000  24.8920 " ConfE="      -5950.5479" DelE="          0.0875"
Co    -0.17379219   -0.01274447    3.46454516       1
Cr     3.41293428   -0.03158645   -0.14443842       2
Ni    -0.18746423    0.00695847   -3.63786803       3
Cr    -0.04332672   -3.56709715   -0.12595245       4
Cr    -3.73466382    0.01905863   -0.08098337       5
Co    -0.13423875    3.57576672   -0.05569842       6
Ni    -0.13035404   -1.75690247    1.66336988       7
Co     1.62171431   -1.69019690   -0.08802479       8
Ni    -0.16773591   -1.73986117   -1.83977372       9
Ni    -0.14751795    1.75091594   -1.82309195      10
Cr    -0.11844767    1.69798607    1.65520918      11
Co     1.60669950    1.74443807   -0.06158234      12
Ni    -1.89632090    1.75768677   -0.06140925      13
Co     1.61155926    0.01227641   -1.83625591      14
Co    -1.92436399   -0.02796381    1.65811122      15
Cr    -1.91806649    0.04067885   -1.80228218      16
Cr    -1.91423596   -1.68953780   -0.06503086      17
Cr     1.61520844    0.03812812    1.58016319      18
