          18
Lattice="  24.8920   0.0000   0.0000   0.0000  24.8920   0.0000   0.0000   0.0000  24.8920 " ConfE="      -5924.3232" DelE="          0.0000"
Ni    -3.51178671    0.07379634    0.00503327       1
Ni    -0.04046426    3.49106513    0.00093238       2
Ni     0.00763754    0.02114851    3.57867968       3
Co     0.03116871   -0.00547880   -3.57016570       4
Co     3.53268643    0.01814085   -0.00013907       5
Cr     0.08576988   -3.52367312    0.01112066       6
Ni    -0.04694973    1.77994531    1.74228040       7
Ni    -1.76798378    0.00519288    1.78640805       8
Ni    -1.77545585    0.06042284   -1.75083010       9
Ni     1.77084148    0.03944291    1.79932043      10
Cr     0.01407209    1.71208706   -1.75087436      11
Ni    -1.74260721   -1.79330200    0.02304079      12
Ni     1.77322691    1.79081779    0.00382789      13
Cr     0.04367827   -1.73379776    1.78218693      14
Co    -0.00924618   -1.75537162   -1.78450253      15
Cr     1.75763328   -1.72035903   -0.04902985      16
Co     1.76658531    0.01298293   -1.76967510      17
Co     0.00000000    0.00000000    0.00000000      18
          18
Lattice="  24.8920   0.0000   0.0000   0.0000  24.8920   0.0000   0.0000   0.0000  24.8920 " ConfE="      -5923.4293" DelE="          0.8939"
Ni    -3.47963718    0.07867807    0.00849145       1
Ni    -0.02681020    3.48195945    0.02046575       2
Ni     0.03291560    0.00567511    3.62888953       3
Co     0.03249069   -0.02604537   -3.61897258       4
Co     3.52970506    0.02453453    0.00104770       5
Cr     0.07444189   -3.54120625    0.01222867       6
Ni     0.02727153    1.82459182    1.91338844       7
Ni    -1.76036314   -0.02618938    1.90139276       8
Ni    -1.82025380   -0.01763672   -1.89842305       9
Ni     1.74053160    0.03701703    1.79127066      10
Cr     0.06909887    1.71811412   -1.87437685      11
Ni    -1.70634580   -1.72380668    0.02826524      12
Ni     1.70336075    1.74031610    0.00335120      13
Cr     0.04599746   -1.68643697    1.73796294      14
Co    -0.00549860   -1.72199536   -1.75153766      15
Cr     1.69758233   -1.68045540   -0.05554473      16
Co     1.71919428    0.00349898   -1.74439854      17
Co    -0.94072310    1.04862377   -0.04806266      18
          18
Lattice="  24.8920   0.0000   0.0000   0.0000  24.8920   0.0000   0.0000   0.0000  24.8920 " ConfE="      -5923.9818" DelE="          0.3414"
Ni    -3.54009780    0.03007290    0.00515184       1
Ni    -0.00873196    3.56372272    0.01027130       2
Ni     0.01612589    0.01064883    3.59144454       3
Co     0.03207583   -0.01160007   -3.57931323       4
Co     3.54019036    0.01966211    0.00282346       5
Cr     0.09086897   -3.57441860    0.01119025       6
Ni    -0.01537846    1.77227197    1.74397148       7
Ni    -1.72749392   -0.01763577    1.77533397       8
Ni    -1.75582371    0.00711393   -1.76655155       9
Ni     1.74001833    0.01997970    1.76615004      10
Cr    -0.02446689    1.69554833   -1.69805439      11
Ni    -1.69988020   -1.77132855    0.03084308      12
Ni     1.72477570    1.76116526   -0.00380715      13
Cr     0.05880048   -1.74683051    1.76197641      14
Co     0.01077760   -1.73805809   -1.73256693      15
Cr     1.71687093   -1.71829860   -0.05315492      16
Co     1.71611740    0.00613035   -1.72771056      17
Co    -1.69091210    1.73333205   -0.05128465      18
