          18
Lattice="  24.8920   0.0000   0.0000   0.0000  24.8920   0.0000   0.0000   0.0000  24.8920 " ConfE="      -5924.3232" DelE="          0.0000"
Ni    -0.01186695    3.42248079   -0.01106280       1
Ni    -0.01828114   -0.08190593    3.57595376       2
Co     3.51178671   -0.07379634   -0.00503327       3
Co    -0.06705584   -0.10203499   -3.59923736       4
Co     0.01624910   -3.62204640    0.01752036       5
Co    -3.58919102   -0.02751825    0.07938732       6
Ni     1.73633086   -0.01337350   -1.75586336       7
Ni     1.74380292   -0.06860346    1.78137479       8
Co    -0.06166265    1.72855294   -1.81768917       9
Ni    -0.04838032   -1.80413949   -1.76309056      10
Ni     1.76917949   -1.86709833    0.01800752      11
Co    -0.10416901    1.67721682    1.81102115      12
Ni    -0.00199302   -1.84806960    1.78218965      13
Co    -1.86389607    1.72742832    0.00154774      14
Co    -1.83417018   -0.05186112   -1.74812081      15
Co    -1.81146193   -1.80242152    0.06021047      16
Cr    -1.77193436   -0.04172619    1.76850059      17
Ni     0.00000000    0.00000000    0.00000000      18
          18
Lattice="  24.8920   0.0000   0.0000   0.0000  24.8920   0.0000   0.0000   0.0000  24.8920 " ConfE="      -5923.6437" DelE="          0.6795"
Ni    -0.02481597    3.41810649   -0.01005245       1
Ni    -0.03849261   -0.11611670    3.63426975       2
Co     3.47578839   -0.06364061   -0.00049925       3
Co    -0.07850598   -0.11245602   -3.64280575       4
Co     0.01941270   -3.62675305    0.01844974       5
Co    -3.59871310   -0.02532338    0.07603142       6
Ni     1.74623906   -0.06680804   -1.85981710       7
Ni     1.75806862   -0.14509199    1.90900213       8
Co    -0.10563935    1.76546777   -1.96124356       9
Ni    -0.04795832   -1.75868823   -1.73963743      10
Ni     1.74099079   -1.82891583    0.03018221      11
Co    -0.20242092    1.67377857    1.99054479      12
Ni    -0.00753672   -1.83713720    1.78743457      13
Co    -1.78008453    1.67529208    0.01874257      14
Co    -1.79397105   -0.02865316   -1.72719824      15
Co    -1.77160322   -1.75191153    0.06483524      16
Cr    -1.73525824   -0.08112092    1.71846787      17
Ni     0.93354493    1.03200693    0.03504112      18
          18
Lattice="  24.8920   0.0000   0.0000   0.0000  24.8920   0.0000   0.0000   0.0000  24.8920 " ConfE="      -5924.1449" DelE="          0.1783"
Ni    -0.03798591    3.47426473   -0.00873335       1
Ni    -0.02300803   -0.09063054    3.59298455       2
Co     3.53594011   -0.11130082    0.00981333       3
Co    -0.07481170   -0.11269592   -3.62293865       4
Co     0.01318360   -3.63988987    0.01860198       5
Co    -3.61412562   -0.04070197    0.06827245       6
Ni     1.68941572   -0.05322493   -1.75173182       7
Ni     1.71604984   -0.10252657    1.78548059       8
Co    -0.07598202    1.70196898   -1.80158101       9
Ni    -0.05956744   -1.78598983   -1.73773040      10
Ni     1.74921885   -1.85466811    0.02620230      11
Co    -0.12353164    1.61630812    1.78034361      12
Ni    -0.00775542   -1.84562352    1.77749334      13
Co    -1.80085260    1.67754945    0.00748797      14
Co    -1.80491648   -0.05188709   -1.72364575      15
Co    -1.78310286   -1.76878786    0.06838663      16
Cr    -1.74374766   -0.07743153    1.72586268      17
Ni     1.66098205    1.63390674    0.01027777      18
