          18
Lattice="  24.8920   0.0000   0.0000   0.0000  24.8920   0.0000   0.0000   0.0000  24.8920 " ConfE="      -5944.9235" DelE="          0.0000"
Co     3.49233974    0.00369763    0.02463168       1
Co    -0.01273507    0.01059762   -3.47538399       2
Ni    -3.52781773    0.02366951    0.04310811       3
Co     0.03734682    3.58871245    0.06371087       4
Cr    -0.01724939   -0.03389281    3.59898339       5
Cr     0.02573634   -3.48460717    0.06393417       6
Ni     1.74511711    1.73711422   -0.03030291       7
Co    -0.00654283    1.79017129   -1.77919490       8
Ni    -1.76819289    1.80048912    0.02000327       9
Ni    -1.76502891    0.02868654    1.84195032      10
Cr     0.01184485   -1.70443386   -1.71416493      11
Cr     1.77500045   -1.71416912    0.02415069      12
Ni     0.00567817    1.77968937    1.82446180      13
Co    -1.82744128   -0.00028147   -1.75952448      14
Co     1.76368282   -0.00328535    1.84681208      15
Co    -1.76599706   -1.77856934    0.04493810      16
Co     0.00629305   -1.78895288    1.82130041      17
Ni     0.00000000    0.00000000    0.00000000      18
          18
Lattice="  24.8920   0.0000   0.0000   0.0000  24.8920   0.0000   0.0000   0.0000  24.8920 " ConfE="      -5944.5490" DelE="          0.3745"
Co     3.48506642    0.01343905    0.02418782       1
Co    -0.01758522    0.00813968   -3.44954502       2
Ni    -3.53764752    0.02915334    0.04387235       3
Co     0.02751367    3.62101023    0.07441196       4
Cr    -0.01598542   -0.03357311    3.61190909       5
Cr     0.02046175   -3.51987215    0.09158659       6
Ni     1.77131376    1.84451886    0.01587643       7
Co    -0.03325411    1.93126083   -1.81208362       8
Ni    -1.71616890    1.76399035    0.01485906       9
Ni    -1.74466021    0.02762638    1.83472336      10
Cr    -0.14913232   -1.91916047   -1.77188320      11
Cr     1.84788392   -1.84385274    0.08046734      12
Ni     0.00577001    1.77953372    1.82620774      13
Co    -1.80465300    0.00483702   -1.75257317      14
Co     1.72758642   -0.00540119    1.79553994      15
Co    -1.71885604   -1.74231795    0.03965060      16
Co     0.01229191   -1.77672822    1.78493209      17
Ni     0.48729038   -0.04848102   -0.58583049      18
          18
Lattice="  24.8920   0.0000   0.0000   0.0000  24.8920   0.0000   0.0000   0.0000  24.8920 " ConfE="      -5944.6227" DelE="          0.3008"
Co     3.46489929    0.01812156    0.02138644       1
Co    -0.00659650    0.00847591   -3.46140831       2
Ni    -3.51702132    0.02948120    0.03315292       3
Co     0.01871296    3.64588043    0.07880253       4
Cr    -0.00735958   -0.03150658    3.59727636       5
Cr     0.01429878   -3.54463073    0.09488508       6
Ni     1.76927091    1.90140827    0.05158084       7
Co    -0.04358596    1.94604519   -1.79562460       8
Ni    -1.73299771    1.79276283    0.01894539       9
Ni    -1.71410164    0.02896885    1.80956298      10
Cr    -0.19290395   -1.91192792   -1.74582975      11
Cr     1.85036512   -1.90052863    0.13865219      12
Ni     0.00464804    1.78733346    1.81494081      13
Co    -1.75272329    0.01151694   -1.73186051      14
Co     1.71688862   -0.00433147    1.77976577      15
Co    -1.71403560   -1.75491598    0.04077476      16
Co     0.01728558   -1.78993533    1.78031851      17
Ni     0.85026912   -0.05650941   -0.84770195      18
