          18
Lattice="  24.8920   0.0000   0.0000   0.0000  24.8920   0.0000   0.0000   0.0000  24.8920 " ConfE="      -5946.5120" DelE="          0.0000"
Cr    -3.48433457   -0.02434093   -0.03094607       1
Co     0.03862930   -0.01074720   -3.46782978       2
Cr     3.71947383   -0.02648395    0.03035283       3
Co     0.03005486    0.01620385    3.51564619       4
Ni     0.11570484   -3.54102368   -0.03277899       5
Co     0.09290746    3.51314998   -0.05150556       6
Ni    -1.70347028   -1.77650197   -0.00838738       7
Ni    -1.70884183    1.74855127   -0.01610673       8
Cr    -0.02700738   -1.64218778   -1.79929460       9
Cr    -0.00386269    1.64813494   -1.79602558      10
Co    -1.76053650   -0.01415931    1.79827619      11
Ni     1.90313598   -0.02117309   -1.74126030      12
Co     1.88130732    0.00859303    1.71781690      13
Ni     0.07873229   -1.78956461    1.77321159      14
Co     0.09901605    1.72586143    1.70027028      15
Ni     1.86214804   -1.78950849   -0.00832385      16
Cr     1.80544628    1.73947841   -0.01936917      17
Cr     0.00000000    0.00000000    0.00000000      18
          18
Lattice="  24.8920   0.0000   0.0000   0.0000  24.8920   0.0000   0.0000   0.0000  24.8920 " ConfE="      -5945.9602" DelE="          0.5518"
Cr    -3.43952787   -0.01374689   -0.01875752       1
Co     0.03709827   -0.03671691   -3.47852108       2
Cr     3.66337684   -0.02985443    0.01039571       3
Co     0.01518490    0.01450296    3.51135596       4
Ni     0.12610302   -3.63037357    0.00574293       5
Co     0.09715785    3.62310535   -0.01998340       6
Ni    -1.69906170   -1.92512228    0.02650778       7
Ni    -1.69790192    1.88550351    0.01768705       8
Cr     0.12668637   -1.94229785   -1.82166465       9
Cr     0.06004085    1.92736944   -1.84713703      10
Co    -1.72220610   -0.02550213    1.65062841      11
Ni     1.78831445   -0.01448253   -1.72863543      12
Co     1.85720729    0.02762351    1.67129479      13
Ni     0.07299325   -1.78192864    1.73939883      14
Co     0.09973644    1.70765645    1.65142961      15
Ni     1.81604290   -1.79019088   -0.00570615      16
Cr     1.65927246    1.66259460   -0.01548883      17
Cr    -0.82310862   -0.03780987   -0.99952454      18
          18
Lattice="  24.8920   0.0000   0.0000   0.0000  24.8920   0.0000   0.0000   0.0000  24.8920 " ConfE="      -5946.6254" DelE="         -0.1135"
Cr    -3.50934954   -0.00778929   -0.00152393       1
Co     0.08236478    0.00327222   -3.54149826       2
Cr     3.71794034   -0.03603497    0.02834367       3
Co     0.03017775    0.01799634    3.54543811       4
Ni     0.12030234   -3.57865551   -0.00255917       5
Co     0.09869517    3.56659483   -0.02140476       6
Ni    -1.66571358   -1.76623345    0.01261851       7
Ni    -1.66885784    1.75146121    0.01918277       8
Cr     0.05601221   -1.71850740   -1.75815304       9
Cr     0.08296600    1.71523195   -1.70858824      10
Co    -1.75150546   -0.01440448    1.76933145      11
Ni     1.84589298   -0.01756095   -1.71341026      12
Co     1.88858238    0.01622172    1.70876564      13
Ni     0.08938128   -1.77014856    1.77078503      14
Co     0.13194749    1.68986919    1.66675355      15
Ni     1.85019174   -1.78168265    0.01657890      16
Cr     1.79326670    1.68497245    0.04848079      17
Cr    -1.64708393   -0.00834443   -1.72615055      18
