          18
Lattice="  24.8920   0.0000   0.0000   0.0000  24.8920   0.0000   0.0000   0.0000  24.8920 " ConfE="      -5949.8312" DelE="          0.0000"
Cr     0.05529502    0.05929670   -3.50895379       1
Co    -3.43170400    0.01518218    0.01880640       2
Ni     0.05235821    0.01030851    3.59755371       3
Cr     0.01895157   -3.40814383    0.07783031       4
Cr     3.58782586   -0.14626480    0.06675792       5
Cr     0.04219367    3.54565073   -0.00334540       6
Ni     0.02139703   -1.70482506   -1.76988010       7
Ni    -1.69587524   -0.01071302    1.82089352       8
Cr    -1.79263660   -1.74501848   -0.04808081       9
Ni     1.84387655    0.00807968   -1.78325685      10
Cr    -1.72402108    1.80172455   -0.00214222      11
Co     0.04640582    1.77854044   -1.73081697      12
Ni     1.80787848   -0.03384963    1.81449924      13
Ni     1.82781640    1.73652908    0.04178527      14
Co     0.00618822   -1.81429969    1.75412679      15
Cr     0.01422325    1.80849466    1.80463757      16
Co     1.82152221   -1.78208693    0.02060784      17
Ni     0.00000000    0.00000000    0.00000000      18
          18
Lattice="  24.8920   0.0000   0.0000   0.0000  24.8920   0.0000   0.0000   0.0000  24.8920 " ConfE="      -5949.3367" DelE="          0.4945"
Cr     0.01840587    0.05248229   -3.44436433       1
Co    -3.49115998    0.02435093    0.03605936       2
Ni     0.04015751    0.01652348    3.57596268       3
Cr     0.07804810   -3.48359052    0.07334317       4
Cr     3.58806477   -0.15280525    0.07155202       5
Cr     0.09777206    3.62278386    0.03727975       6
Ni     0.07705744   -1.80605324   -1.76447081       7
Ni    -1.64595202   -0.00119598    1.68878934       8
Cr    -1.78470290   -1.96123461    0.06236404       9
Ni     1.81753614    0.00243889   -1.76257913      10
Cr    -1.79113832    2.02610534    0.06722019      11
Co     0.11581294    1.90625018   -1.72951068      12
Ni     1.77765948   -0.03337036    1.78867962      13
Ni     1.78671738    1.70703978    0.04879754      14
Co    -0.00438581   -1.80736115    1.67722044      15
Cr    -0.00140361    1.79405897    1.74502040      16
Co     1.79037372   -1.77026878    0.01968028      17
Ni    -1.13258371    0.04684358   -0.92351783      18
          18
Lattice="  24.8920   0.0000   0.0000   0.0000  24.8920   0.0000   0.0000   0.0000  24.8920 " ConfE="      -5949.7964" DelE="          0.0348"
Cr     0.07944819    0.04604649   -3.54085789       1
Co    -3.50549448    0.03339652    0.05112930       2
Ni     0.05434291    0.01565983    3.60215990       3
Cr     0.05227278   -3.45571890    0.08008840       4
Cr     3.59115160   -0.15442456    0.06926119       5
Cr     0.08859414    3.59434025    0.01664935       6
Ni     0.06148619   -1.71690911   -1.73818618       7
Ni    -1.64146289    0.01003150    1.73058336       8
Cr    -1.70188778   -1.77440573    0.01885293       9
Ni     1.82223663    0.00890820   -1.77599815      10
Cr    -1.65389290    1.82191460    0.00694886      11
Co     0.06277696    1.77723985   -1.68189939      12
Ni     1.79331895   -0.03108540    1.80398854      13
Ni     1.80117171    1.70261440    0.04859400      14
Co     0.00862401   -1.79298361    1.69317883      15
Cr     0.02777746    1.80351814    1.78654741      16
Co     1.80640741   -1.75273715    0.02219729      17
Ni    -1.70035587    0.00994153   -1.71376265      18
