          18
Lattice="  24.8920   0.0000   0.0000   0.0000  24.8920   0.0000   0.0000   0.0000  24.8920 " ConfE="      -5938.1123" DelE="          0.0000"
Cr     0.17536614    0.05859463    3.36418260       1
Ni    -3.59902362    0.02732797   -0.06368479       2
Cr     3.42269391    0.01644786    0.01938843       3
Ni    -0.05784288    0.05096048   -3.63000878       4
Cr     0.00708903    3.51726190   -0.03614245       5
Cr     0.01149763   -3.47111577   -0.04881749       6
Ni    -0.03963743    1.78889605    1.70770437       7
Ni    -1.83059920    0.05777976    1.75071656       8
Ni     1.72397203    0.04487149   -1.85492097       9
Co     1.76870048    1.75426268   -0.03806141      10
Ni    -1.80516638   -1.72583268   -0.06031608      11
Cr     0.01968235   -1.66710950    1.66865309      12
Ni    -0.03800096    1.78412718   -1.81734909      13
Co     1.70456777   -1.72768618   -0.02514386      14
Co    -1.81258499    0.02760749   -1.81577032      15
Co    -1.83951564    1.82222685   -0.07421870      16
Cr    -0.01839356   -1.72569995   -1.73592779      17
Co     0.00000000    0.00000000    0.00000000      18
          18
Lattice="  24.8920   0.0000   0.0000   0.0000  24.8920   0.0000   0.0000   0.0000  24.8920 " ConfE="      -5937.6233" DelE="          0.4890"
Cr     0.20858287    0.06964667    3.31420791       1
Ni    -3.59255351    0.02924060   -0.05754447       2
Cr     3.38777416   -0.01478765    0.08187922       3
Ni    -0.04420089    0.05606295   -3.63258909       4
Cr    -0.01113753    3.59028886   -0.04677483       5
Cr     0.01148731   -3.51496279   -0.05984511       6
Ni    -0.09293297    1.92077192    1.72098755       7
Ni    -1.76538788    0.07197918    1.73027465       8
Ni     1.70671879    0.03933417   -1.77769584       9
Co     1.77834076    1.90501007   -0.08026782      10
Ni    -1.74666140   -1.69728943   -0.03789262      11
Cr    -0.03931815   -1.82640305    1.75422672      12
Ni    -0.03666442    1.77834489   -1.78501444      13
Co     1.73571364   -1.94158508   -0.13333896      14
Co    -1.76302069    0.02073296   -1.78344782      15
Co    -1.83621544    1.83395249   -0.07519927      16
Cr    -0.00258727   -1.69439799   -1.68657704      17
Co     0.76630602   -0.06323038    0.73625607      18
          18
Lattice="  24.8920   0.0000   0.0000   0.0000  24.8920   0.0000   0.0000   0.0000  24.8920 " ConfE="      -5938.3178" DelE="         -0.2055"
Cr     0.08433727    0.09378725    3.47137052       1
Ni    -3.61147972    0.02568580   -0.06393830       2
Cr     3.49078703    0.02957900   -0.06734258       3
Ni    -0.05883908    0.05385404   -3.64224440       4
Cr    -0.00753382    3.56174809   -0.04321903       5
Cr     0.00262257   -3.50176958   -0.06172631       6
Ni    -0.05933781    1.77844555    1.66507987       7
Ni    -1.79003238    0.05406281    1.72197258       8
Ni     1.68846236    0.04471710   -1.82195980       9
Co     1.74344564    1.78256937   -0.07236745      10
Ni    -1.76929395   -1.69761497   -0.06071221      11
Cr     0.00919661   -1.65910053    1.64205528      12
Ni    -0.04768917    1.77530619   -1.79794102      13
Co     1.63660495   -1.72246922   -0.06110275      14
Co    -1.79666967    0.02843396   -1.80562012      15
Co    -1.84693489    1.82559381   -0.08581469      16
Cr    -0.03448332   -1.70638672   -1.71345995      17
Co     1.71835950    0.02474508    1.66913427      18
