          18
Lattice="  24.8920   0.0000   0.0000   0.0000  24.8920   0.0000   0.0000   0.0000  24.8920 " ConfE="      -5940.9937" DelE="          0.0000"
Ni    -3.51879528    0.00932628   -0.00970947       1
Co    -0.03213618   -3.48653212   -0.00053364       2
Co     3.54096480    0.04960052   -0.00085051       3
Co     0.02288396    3.65109444   -0.03823647       4
Ni     0.00881608    0.05882878   -3.51308860       5
Co    -0.04787711    0.03255427    3.52560462       6
Co    -1.77509350    0.02591544   -1.73935657       7
Cr    -1.73473518   -0.06508847    1.67497062       8
Ni    -0.03597082   -1.72546307   -1.73213550       9
Co    -0.01715826   -1.72282006    1.72564699      10
Ni    -1.77604817    1.83961151   -0.00495551      11
Co     1.80311468   -1.75198934   -0.02518639      12
Co     1.75675388    1.85966922   -0.02925038      13
Cr     0.02341360    1.81746820   -1.75168889      14
Ni    -0.02042651    1.82129064    1.75886411      15
Cr     1.80495632    0.02864185   -1.74606676      16
Cr     1.76057340    0.02758311    1.75399315      17
Cr     0.00000000    0.00000000    0.00000000      18
          18
Lattice="  24.8920   0.0000   0.0000   0.0000  24.8920   0.0000   0.0000   0.0000  24.8920 " ConfE="      -5940.3428" DelE="          0.6509"
Ni    -3.48588705    0.01328518    0.00035079       1
Co    -0.03286196   -3.49183157   -0.01259423       2
Co     3.53621683    0.03587528    0.00339310       3
Co     0.02046501    3.67131766   -0.04632788       4
Ni     0.02515339    0.07312658   -3.56509100       5
Co    -0.03061260    0.04380599    3.58848720       6
Co    -1.76093546    0.06843021   -1.83528157       7
Cr    -1.70616445    0.05844279    1.86404614       8
Ni     0.04065770   -1.75229123   -1.90000316       9
Co     0.03133347   -1.77279116    1.86902700      10
Ni    -1.74092299    1.77057708   -0.00623553      11
Co     1.68788797   -1.72128506   -0.03440705      12
Co     1.74197360    1.86507259   -0.03000921      13
Cr     0.00476935    1.78096943   -1.71754140      14
Ni    -0.01737247    1.81623089    1.72416215      15
Cr     1.65228115    0.06330827   -1.57746499      16
Cr     1.55596548   -0.01803825    1.57976629      17
Cr    -1.08097608   -1.10777930    0.00307770      18
          18
Lattice="  24.8920   0.0000   0.0000   0.0000  24.8920   0.0000   0.0000   0.0000  24.8920 " ConfE="      -5941.0602" DelE="         -0.0665"
Ni    -3.53870752    0.04251014   -0.01047820       1
Co    -0.00049944   -3.53107615   -0.00034047       2
Co     3.57241848    0.05562285   -0.00367369       3
Co     0.02754815    3.68598400   -0.04540510       4
Ni     0.02206734    0.06704127   -3.52343191       5
Co    -0.04523055    0.03365594    3.54749856       6
Co    -1.73277109    0.06176931   -1.73179598       7
Cr    -1.57337402   -0.03198718    1.58231804       8
Ni    -0.00564943   -1.68975743   -1.72107862       9
Co     0.01135035   -1.72445609    1.73331616      10
Ni    -1.74857424    1.82332051   -0.01239947      11
Co     1.76676952   -1.72226501   -0.02088405      12
Co     1.74248835    1.85740651   -0.03928860      13
Cr     0.02521072    1.80297209   -1.72574963      14
Ni    -0.00952831    1.82771523    1.72424997      15
Cr     1.71794307    0.06388168   -1.61697697      16
Cr     1.64214137    0.00878939    1.61276424      17
Cr    -1.78438340   -1.78583486   -0.04265085      18
