          18
Lattice="  24.8920   0.0000   0.0000   0.0000  24.8920   0.0000   0.0000   0.0000  24.8920 " ConfE="      -5949.7963" DelE="          0.0000"
Ni     3.52250255   -0.00035664   -0.06144077       1
Ni     0.06005778    0.00062074    3.44568674       2
Ni    -0.00758526   -3.54090458   -0.03196346       3
Cr     0.02054766    0.03646084   -3.64780196       4
Cr    -3.54087561   -0.02216887   -0.03407437       5
Co     0.01432268    3.57370877   -0.00609565       6
Ni     1.76247307   -1.72645497   -0.02466375       7
Cr    -0.00013934   -1.78202156    1.73323816       8
Ni     0.00620497   -1.74039267   -1.81455926       9
Co     1.76287686    1.76759889    0.03262424      10
Cr     0.04728875    1.81032500    1.72145755      11
Ni     0.02166322    1.78670708   -1.79952367      12
Ni    -1.77209965    1.78121654   -0.02155223      13
Co    -1.80304746   -1.74142828   -0.02896818      14
Cr     1.77974703    0.03659710   -1.82657964      15
Co    -1.80451479    0.02336992    1.76560220      16
Co    -1.78420090    0.02257447   -1.83652479      17
Ni     0.00000000    0.00000000    0.00000000      18
          18
Lattice="  24.8920   0.0000   0.0000   0.0000  24.8920   0.0000   0.0000   0.0000  24.8920 " ConfE="      -5949.3372" DelE="          0.4591"
Ni     3.52122352   -0.00732135   -0.05888201       1
Ni     0.05107018   -0.01327338    3.40257085       2
Ni    -0.01103853   -3.58648687   -0.04412727       3
Cr     0.03320383    0.02924435   -3.66668388       4
Cr    -3.55805224   -0.02521980   -0.03046235       5
Co     0.00310956    3.60331656   -0.02299522       6
Ni     1.78258866   -1.81270993   -0.05637279       7
Cr    -0.08206572   -1.96823640    1.77687374       8
Ni     0.00938398   -1.73588522   -1.79813557       9
Co     1.81277632    1.89167600   -0.02738949      10
Cr    -0.09837252    2.00947697    1.77078644      11
Ni     0.02142119    1.78561664   -1.79412788      12
Ni    -1.74716049    1.76038298   -0.03440424      13
Co    -1.73787300   -1.70441080   -0.00765836      14
Cr     1.71743105    0.04738618   -1.73707089      15
Co    -1.79233906    0.01302439    1.74526609      16
Co    -1.74591434    0.01607785   -1.81175490      17
Ni     0.56593282    0.03281887    0.78069865      18
          18
Lattice="  24.8920   0.0000   0.0000   0.0000  24.8920   0.0000   0.0000   0.0000  24.8920 " ConfE="      -5949.8313" DelE="         -0.0350"
Ni     3.54466107   -0.00116099   -0.06872849       1
Ni     0.00448173   -0.01945042    3.53454602       2
Ni    -0.01598723   -3.55882602   -0.04312321       3
Cr     0.02759708    0.03319632   -3.67812714       4
Cr    -3.56094556   -0.01976853   -0.03134166       5
Co     0.00682291    3.59181110   -0.01785579       6
Ni     1.72193681   -1.71376625   -0.05535037       7
Cr    -0.09231711   -1.75453878    1.66640605       8
Ni     0.00226122   -1.70534709   -1.79761350       9
Co     1.74758273    1.77032427   -0.01583118      10
Cr    -0.02258892    1.79292643    1.71188271      11
Ni     0.01901679    1.75721861   -1.78754902      12
Ni    -1.74043321    1.74871607   -0.03192809      13
Co    -1.75605611   -1.70093880   -0.03021512      14
Cr     1.75537927    0.05124564   -1.79420258      15
Co    -1.73155565    0.00676315    1.73312065      16
Co    -1.76785680    0.02320623   -1.83127065      17
Ni     1.70055018   -0.00923516    1.71417605      18
