          18
Lattice="  24.8920   0.0000   0.0000   0.0000  24.8920   0.0000   0.0000   0.0000  24.8920 " ConfE="      -5937.8589" DelE="          0.0000"
Ni    -0.05037321   -0.00793908    3.52099647       1
Ni    -0.07769926    3.48998342    0.01533259       2
Cr    -0.03158148   -0.06874602   -3.49456974       3
Cr    -0.03244264   -3.53686513   -0.09162946       4
Ni    -3.56341338   -0.04004792   -0.02698156       5
Cr     3.43633659   -0.00897538   -0.01325009       6
Ni    -1.80577248   -0.01392816    1.74576218       7
Cr     1.63047554    0.04454767    1.66733222       8
Ni    -1.78009806    1.72773497    0.01216366       9
Cr     1.65628031    1.76694806   -0.02743762      10
Ni    -0.04409064   -1.81008686    1.77269620      11
Co    -0.07156940    1.73096804   -1.81681975      12
Co    -0.04008183   -1.79065955   -1.79141631      13
Co    -1.77395450   -1.82335864   -0.02062766      14
Co     1.71776691   -1.79532724   -0.02574064      15
Cr    -1.74837629   -0.07118165   -1.76685717      16
Ni     1.74032342   -0.02859541   -1.79387791      17
Co     0.00000000    0.00000000    0.00000000      18
          18
Lattice="  24.8920   0.0000   0.0000   0.0000  24.8920   0.0000   0.0000   0.0000  24.8920 " ConfE="      -5937.1687" DelE="          0.6902"
Ni    -0.05531404    0.01001577    3.49653318       1
Ni    -0.09292596    3.46566574    0.02081953       2
Cr    -0.02866562   -0.06573120   -3.49650594       3
Cr    -0.03270879   -3.54386657   -0.07852595       4
Ni    -3.63173848   -0.04616143   -0.04189936       5
Cr     3.50392372   -0.02276551   -0.02105014       6
Ni    -1.92072238   -0.03563732    1.75906028       7
Cr     1.82369703   -0.06602578    1.75850784       8
Ni    -1.93183227    1.75376772   -0.04135791       9
Cr     1.84530389    1.88765285   -0.10040279      10
Ni    -0.05014334   -1.73686139    1.73190803      11
Co    -0.08415338    1.69613701   -1.74569557      12
Co    -0.04595678   -1.74616327   -1.75264536      13
Co    -1.77542046   -1.78066511   -0.02970720      14
Co     1.71157969   -1.76001048   -0.00572512      15
Cr    -1.71123057   -0.06039903   -1.70600035      16
Ni     1.71142871   -0.00406463   -1.71924815      17
Co     0.06860832    0.91168798    0.82705006      18
          18
Lattice="  24.8920   0.0000   0.0000   0.0000  24.8920   0.0000   0.0000   0.0000  24.8920 " ConfE="      -5937.8652" DelE="         -0.0063"
Ni    -0.05694538   -0.02477566    3.55823113       1
Ni    -0.08175602    3.52902520   -0.02767946       2
Cr    -0.03116162   -0.07891964   -3.52027322       3
Cr    -0.03604929   -3.56106878   -0.09316979       4
Ni    -3.58728030   -0.05098729   -0.03782774       5
Cr     3.48337967    0.00176086   -0.02418842       6
Ni    -1.80436502   -0.03230342    1.71983783       7
Cr     1.61623322    0.02700919    1.61967472       8
Ni    -1.78337690    1.68494168   -0.03251920       9
Cr     1.64346261    1.74263017   -0.05135385      10
Ni    -0.04741106   -1.77278697    1.74939534      11
Co    -0.07042244    1.69835460   -1.77730958      12
Co    -0.05658550   -1.75697359   -1.77609298      13
Co    -1.75828785   -1.80087851   -0.04038371      14
Co     1.68765127   -1.74733793   -0.01386171      15
Cr    -1.71852267   -0.09687543   -1.76049114      16
Ni     1.70678997   -0.02414700   -1.75400456      17
Co    -0.03551422    1.74511264    1.72191683      18
