          18
Lattice="  24.8920   0.0000   0.0000   0.0000  24.8920   0.0000   0.0000   0.0000  24.8920 " ConfE="      -5946.5631" DelE="          0.0000"
Co    -0.11668764   -3.53699811    0.05438840       1
Cr     0.00618562    0.01535445    3.60045679       2
Ni     0.00080458    3.53784588    0.03388615       3
Co     0.01200167   -0.00115348   -3.55226311       4
Cr    -3.57285237    0.07784460    0.05795313       5
Ni     3.53165250   -0.05460975    0.00749152       6
Co    -1.78803642   -1.77004161    0.05322908       7
Ni     1.72327751   -1.80769849    0.03624434       8
Ni    -1.71520163   -0.02321529    1.81515332       9
Ni     1.71369725   -0.05151700    1.80077634      10
Ni    -0.02071296   -1.77864377   -1.75582493      11
Cr     0.00837251    1.79092725    1.85027842      12
Co     0.00225588    1.78694307   -1.75654454      13
Ni    -1.78637317    0.02410011   -1.75766919      14
Co     1.75424700   -0.01294929   -1.77018008      15
Cr    -1.79127643    1.76349372    0.05217898      16
Cr     1.76246114    1.73768623   -0.01988225      17
Cr     0.00000000    0.00000000    0.00000000      18
          18
Lattice="  24.8920   0.0000   0.0000   0.0000  24.8920   0.0000   0.0000   0.0000  24.8920 " ConfE="      -5945.9084" DelE="          0.6547"
Co    -0.10024217   -3.50074688    0.05687163       1
Cr     0.00266299   -0.00524359    3.56888350       2
Ni     0.00914122    3.54063446    0.03995941       3
Co     0.02022926   -0.01709262   -3.55408307       4
Cr    -3.65822083    0.13507348    0.05291076       5
Ni     3.57311549   -0.04750588   -0.00453194       6
Co    -1.92311943   -1.79237925    0.00887614       7
Ni     1.86702162   -1.85247506   -0.02193185       8
Ni    -1.86328445    0.02512485    1.86167097       9
Ni     1.84140482   -0.01666572    1.81647322      10
Ni    -0.01305097   -1.74657755   -1.68749760      11
Cr     0.01194910    1.73824043    1.83218645      12
Co     0.00509268    1.72937326   -1.70737255      13
Ni    -1.76640879   -0.00368637   -1.69552677      14
Co     1.74080517   -0.01725010   -1.72224796      15
Cr    -1.64922234    1.63613946    0.06206000      16
Cr     1.62959715    1.60717758   -0.03131580      17
Cr    -0.03066898   -0.87705368    0.78832783      18
          18
Lattice="  24.8920   0.0000   0.0000   0.0000  24.8920   0.0000   0.0000   0.0000  24.8920 " ConfE="      -5946.8965" DelE="         -0.3334"
Co    -0.09823408   -3.60434052    0.00136804       1
Cr     0.00584546    0.03480858    3.61373128       2
Ni     0.00113649    3.58174721    0.02576227       3
Co     0.01910713    0.00157653   -3.57441112       4
Cr    -3.57440627    0.10679883    0.05574747       5
Ni     3.54254070   -0.04094489   -0.00276622       6
Co    -1.78286162   -1.76320756    0.03941158       7
Ni     1.72450359   -1.78356631    0.00826733       8
Ni    -1.71141501    0.00522264    1.78686187       9
Ni     1.70498061   -0.01986258    1.75817311      10
Ni    -0.01645785   -1.74279393   -1.71267165      11
Cr     0.01751072    1.77683641    1.79824890      12
Co     0.01239851    1.77019847   -1.72275201      13
Ni    -1.75695612    0.03368391   -1.72201660      14
Co     1.74528640    0.00289731   -1.75727591      15
Cr    -1.71623418    1.73862646    0.04643617      16
Cr     1.67044524    1.70141344   -0.05224365      17
Cr    -0.01459655   -1.83943518    1.76445158      18
