          18
Lattice="  24.8920   0.0000   0.0000   0.0000  24.8920   0.0000   0.0000   0.0000  24.8920 " ConfE="      -5942.9417" DelE="          0.0000"
Cr     0.03949574   -3.46076978    0.01938238       1
Cr     0.00912188    0.00343648    3.42366964       2
Co     0.00118216    3.63548776   -0.07424877       3
Ni     0.02778587    0.03873868   -3.61212793       4
Cr     3.53372071    0.07277253   -0.08013397       5
Co    -3.53817988    0.02331505   -0.07920962       6
Ni     1.75265216   -1.70548934   -0.03498344       7
Cr    -1.75399893   -1.71725297   -0.04525120       8
Cr     1.76442596    0.03337667    1.73730019       9
Co    -1.69795905    0.01722557    1.70517071      10
Ni     0.01029830   -1.71169937   -1.85454667      11
Co     0.03697547    1.82141074    1.72385376      12
Ni     0.03639878    1.84322906   -1.86377924      13
Co     1.82704173    0.05417545   -1.80532364      14
Ni    -1.73913256    0.05980955   -1.84957741      15
Ni     1.77703028    1.83543211   -0.08393249      16
Ni    -1.74355363    1.80746453   -0.06876690      17
Cr     0.00000000    0.00000000    0.00000000      18
          18
Lattice="  24.8920   0.0000   0.0000   0.0000  24.8920   0.0000   0.0000   0.0000  24.8920 " ConfE="      -5942.4102" DelE="          0.5315"
Cr     0.06986578   -3.48579339    0.00791518       1
Cr     0.00987574    0.04046909    3.47245061       2
Co     0.00038180    3.63107877   -0.05317679       3
Ni     0.02854996    0.02580254   -3.60632744       4
Cr     3.62650321    0.09858724   -0.09210084       5
Co    -3.59191917    0.03702495   -0.07622093       6
Ni     1.88841949   -1.72451244   -0.07729681       7
Cr    -1.87777263   -1.75373062   -0.09036828       8
Cr     1.92435247    0.08098855    1.75515536       9
Co    -1.86897417    0.08089278    1.75806263      10
Ni     0.02564028   -1.68458104   -1.76724703      11
Co     0.04136663    1.73577099    1.73104115      12
Ni     0.04886534    1.81832915   -1.83920404      13
Co     1.84412863    0.04933283   -1.77819405      14
Ni    -1.70926842    0.04766800   -1.78897454      15
Ni     1.76460137    1.78855447   -0.06202437      16
Ni    -1.71537652    1.76561280   -0.04442286      17
Cr    -0.03757928   -0.72332818    0.77554880      18
          18
Lattice="  24.8920   0.0000   0.0000   0.0000  24.8920   0.0000   0.0000   0.0000  24.8920 " ConfE="      -5943.1634" DelE="         -0.2217"
Cr     0.05228667   -3.53107928   -0.02381466       1
Cr     0.00627739    0.05447180    3.52923349       2
Co     0.00354665    3.65614367   -0.06750931       3
Ni     0.03276382    0.03820046   -3.62387107       4
Cr     3.55913400    0.08485175   -0.09708587       5
Co    -3.57450702    0.04041404   -0.07986498       6
Ni     1.73794399   -1.65540001   -0.05757364       7
Cr    -1.76580249   -1.68179294   -0.06392614       8
Cr     1.75750696    0.08737512    1.70489310       9
Co    -1.70766097    0.02720428    1.68813722      10
Ni     0.00598983   -1.68133768   -1.80582052      11
Co     0.05507698    1.73346266    1.70731223      12
Ni     0.05080129    1.87110216   -1.89159408      13
Co     1.84599001    0.07267130   -1.80978186      14
Ni    -1.70402492    0.07743363   -1.81839045      15
Ni     1.76669993    1.82274950   -0.09801285      16
Ni    -1.71395826    1.79627054   -0.06706395      17
Cr     0.00013190   -1.66974848    1.70130052      18
