          18
Lattice="  24.8920   0.0000   0.0000   0.0000  24.8920   0.0000   0.0000   0.0000  24.8920 " ConfE="      -5935.9574" DelE="          0.0000"
Ni     3.56138237    0.08517143   -0.06448273       1
Cr     0.04363596   -0.05314146    3.54045430       2
Co     0.04251756   -3.46570932   -0.00063603       3
Ni    -0.01467451    3.64086129   -0.05017134       4
Co     0.00674580    0.01888430   -3.56450091       5
Cr    -3.56520649    0.04262858   -0.04028380       6
Ni     1.76501887    0.03961983    1.73024738       7
Cr     1.75803529   -1.76661890   -0.03928045       8
Cr    -1.71994526   -1.73834495    0.04749876       9
Cr    -1.71539187   -0.01477062    1.79301469      10
Ni    -1.77158539    0.04643694   -1.78757187      11
Cr     1.70802948    1.85691057   -0.05955362      12
Cr     0.01640520    1.87119085    1.76473379      13
Co     1.79207599    0.06325275   -1.78539860      14
Cr     0.00955150   -1.69425456   -1.85750269      15
Co     0.05220885    1.82372594   -1.75901645      16
Co    -1.71968362    1.78087021    0.01844270      17
Ni     0.00000000    0.00000000    0.00000000      18
          18
Lattice="  24.8920   0.0000   0.0000   0.0000  24.8920   0.0000   0.0000   0.0000  24.8920 " ConfE="      -5935.4725" DelE="          0.4849"
Ni     3.64492612    0.10521855   -0.08373936       1
Cr     0.06239721   -0.10099253    3.50244119       2
Co     0.02452715   -3.45454063   -0.00805801       3
Ni    -0.01657675    3.62381737   -0.04484203       4
Co     0.00171740    0.00560883   -3.56643576       5
Cr    -3.64149171    0.06047242   -0.05616737       6
Ni     1.94777580    0.10974945    1.75022105       7
Cr     1.96517371   -1.78501356   -0.12546026       8
Cr    -1.92207422   -1.73775192   -0.04655441       9
Cr    -1.87955921    0.05512598    1.78947196      10
Ni    -1.77132245    0.03772192   -1.75975089      11
Cr     1.66933013    1.78210853   -0.06674552      12
Cr     0.02132577    1.73044548    1.69135686      13
Co     1.77404821    0.04211828   -1.72254176      14
Cr     0.00537294   -1.62533859   -1.72925473      15
Co     0.05395852    1.76114231   -1.70609323      16
Co    -1.67387554    1.69352586    0.05076984      17
Ni     0.04672026   -0.96573178    0.93533875      18
          18
Lattice="  24.8920   0.0000   0.0000   0.0000  24.8920   0.0000   0.0000   0.0000  24.8920 " ConfE="      -5935.9107" DelE="          0.0468"
Ni     3.59395714    0.10283871   -0.06939810       1
Cr     0.06287614    0.02341122    3.60598440       2
Co     0.03965099   -3.53370484   -0.04163077       3
Ni    -0.01692542    3.65161991   -0.05388175       4
Co     0.00418035    0.02072436   -3.58610745       5
Cr    -3.60447026    0.05156979   -0.05391074       6
Ni     1.77612676    0.08410067    1.71150332       7
Cr     1.75595493   -1.67356790   -0.08914874       8
Cr    -1.71422169   -1.68745001   -0.00789821       9
Cr    -1.73645003    0.04243149    1.75109088      10
Ni    -1.74815450    0.05144858   -1.76857139      11
Cr     1.65302098    1.80185799   -0.07564707      12
Cr     0.01810191    1.82147368    1.72793404      13
Co     1.76217288    0.06764939   -1.74840531      14
Cr     0.01541942   -1.64135145   -1.77961156      15
Co     0.05837907    1.79988291   -1.73252836      16
Co    -1.63580938    1.69409447    0.05417015      17
Ni     0.03968140   -1.68094894    1.70593897      18
