          18
Lattice="  24.8920   0.0000   0.0000   0.0000  24.8920   0.0000   0.0000   0.0000  24.8920 " ConfE="      -5938.2556" DelE="          0.0000"
Ni     3.57847384    0.00889823    0.00281093       1
Cr     0.00340101   -0.02792742    3.47369572       2
Co     0.00370876    3.55251138    0.00409276       3
Cr    -0.03934888   -3.54509189   -0.04319595       4
Cr    -0.02091515    0.01456466   -3.56327950       5
Cr    -3.49349471    0.02041801   -0.02411807       6
Ni     1.76178617    0.04595785    1.77706243       7
Co     1.75980622    1.78865268   -0.00515802       8
Ni     1.79292366   -1.76319565    0.00508676       9
Co    -1.68117908   -0.02813391    1.77965372      10
Co    -1.75651691    1.73108034   -0.02229878      11
Ni    -1.77972891   -1.78449362    0.01010716      12
Cr     0.02695114   -1.83740977    1.79790006      13
Cr     1.72194200    0.08695887   -1.74127449      14
Co     0.01128103    1.79837828   -1.80956052      15
Cr     0.01155904   -1.78069608   -1.79133233      16
Cr    -1.66028319    0.06831652   -1.72162987      17
Co     0.00000000    0.00000000    0.00000000      18
          18
Lattice="  24.8920   0.0000   0.0000   0.0000  24.8920   0.0000   0.0000   0.0000  24.8920 " ConfE="      -5934.1327" DelE="          4.1229"
Ni     3.65241736    0.04681894    0.05163790       1
Cr     0.05137690   -0.02433430    3.65752364       2
Co     0.01815544    3.52833553    0.00931033       3
Cr    -0.08773732   -3.37846820   -0.04574805       4
Cr    -0.06585632    0.01865156   -3.63623545       5
Cr    -3.45185125   -0.02422787    0.02146719       6
Ni     0.72408722    0.41888412    1.40173037       7
Co     1.87524230    1.86553322   -0.06134009       8
Ni     1.85988154   -1.64033446    0.17019945       9
Co    -1.71482436    0.02874876    2.13638898      10
Co    -1.67708784    1.63025928    0.05469750      11
Ni    -1.15904189   -0.95133069    0.17613378      12
Cr     0.08627372   -1.87877138    1.98593578      13
Cr     2.11081809    0.41012966   -1.79328202      14
Co     0.01476219    1.65842019   -1.76425028      15
Cr    -1.33936820   -2.23341706   -1.73177745      16
Cr    -1.83637424    0.15130219   -1.93542111      17
Co     0.46622833   -0.99852308   -1.58365054      18
          18
Lattice="  24.8920   0.0000   0.0000   0.0000  24.8920   0.0000   0.0000   0.0000  24.8920 " ConfE="      -5938.5077" DelE="         -0.2520"
Ni     3.58135458    0.01145920   -0.00352925       1
Cr     0.00699660   -0.04552180    3.50013239       2
Co     0.00462022    3.54251045   -0.00067320       3
Cr    -0.04159878   -3.52571219   -0.07325156       4
Cr    -0.01989442    0.00407381   -3.55476145       5
Cr    -3.49472860    0.00388559   -0.01729794       6
Ni     1.77716821    0.04316947    1.79113713       7
Co     1.78224321    1.79519143   -0.01520831       8
Ni     1.79297188   -1.75589112   -0.01424137       9
Co    -1.70858499   -0.05924939    1.77870817      10
Co    -1.77589655    1.71159235   -0.03170849      11
Ni     0.01587022    0.02185643    0.04999269      12
Cr     0.02440807   -1.84818876    1.78075186      13
Cr     1.74861144    0.08846918   -1.76724266      14
Co     0.00943002    1.79775698   -1.80915578      15
Cr    -1.77364111   -1.76959672   -0.06352094      16
Cr    -1.69218902    0.05578565   -1.77077336      17
Co     0.00718901   -1.77386127   -1.80245714      18
