          18
Lattice="  24.8920   0.0000   0.0000   0.0000  24.8920   0.0000   0.0000   0.0000  24.8920 " ConfE="      -5948.0770" DelE="          0.0000"
Ni     0.00862325   -3.52520815   -0.00089234       1
Ni    -3.45169390   -0.00193600    0.02754190       2
Ni     0.02338623    3.60393584    0.02720171       3
Co     0.02794027    0.03573904   -3.54204236       4
Cr     3.63300222    0.04557604    0.01227250       5
Cr     0.06615571    0.02962690    3.55002180       6
Ni     0.00385697   -1.76580766   -1.75489921       7
Cr    -1.73893991    0.02451650   -1.79141191       8
Co    -1.70196980    0.00075346    1.80457167       9
Co     0.01254330   -1.74608648    1.76412376      10
Ni     1.81431257    0.00686781   -1.76393835      11
Cr    -1.71520587    1.80105350    0.05013221      12
Co     0.00336881    1.81065258   -1.75749972      13
Cr     1.85962148    1.83935687   -0.03306658      14
Cr     0.05790085    1.79222980    1.80735631      15
Cr     1.83802648   -1.78009168    0.00564249      16
Cr     1.82008289    0.00898794    1.76987884      17
Ni     0.00000000    0.00000000    0.00000000      18
          18
Lattice="  24.8920   0.0000   0.0000   0.0000  24.8920   0.0000   0.0000   0.0000  24.8920 " ConfE="      -5946.9112" DelE="          1.1658"
Ni    -0.02801658   -3.52867144   -0.00321757       1
Ni    -3.42489879    0.00347390    0.01225780       2
Ni    -0.00970347    3.66881729    0.03376222       3
Co     0.07374568    0.03651120   -3.50654556       4
Cr     3.58540846    0.04531236   -0.09601672       5
Cr     0.16124869    0.04290911    3.57970967       6
Ni     0.03522418   -1.90460492   -1.90205852       7
Cr    -1.74540188    0.04504465   -1.97349540       8
Co    -1.65308250    0.07065007    2.00212058       9
Co     0.10400697   -1.76860786    1.86869900      10
Ni     1.18618463    0.05405916   -1.12232084      11
Cr    -1.63243893    1.67933197    0.05337589      12
Co    -0.11386047    1.93320465   -1.73857363      13
Cr     1.89779933    2.01045272   -0.05367240      14
Cr     0.07402778    1.75787088    1.72193099      15
Cr     1.79367690   -1.91657880    0.01856481      16
Cr     1.74884310    0.03814958    1.58766721      17
Ni    -1.04304980   -0.95132470   -0.01985003      18
          18
Lattice="  24.8920   0.0000   0.0000   0.0000  24.8920   0.0000   0.0000   0.0000  24.8920 " ConfE="      -5948.0757" DelE="          0.0012"
Ni     0.04410372   -3.52335604   -0.00562790       1
Ni    -3.49695561    0.03548232    0.02472849       2
Ni     0.05744498    3.57178568    0.02270153       3
Co     0.05981777    0.04341440   -3.52240824       4
Cr     3.63606770    0.02952237   -0.08663826       5
Cr     0.07889331    0.03936442    3.55817545       6
Ni     0.04252159   -1.74527983   -1.78931403       7
Cr    -1.77935665    0.02793196   -1.83397949       8
Co    -1.67977410    0.04056837    1.82390837       9
Co     0.06299266   -1.73170229    1.76989478      10
Ni     0.03382598    0.03116224   -0.04036103      11
Cr    -1.71657019    1.78388985    0.04706502      12
Co     0.00416706    1.80008414   -1.77145742      13
Cr     1.87844147    1.68077121   -0.20398814      14
Cr     0.08599410    1.79660760    1.80052292      15
Cr     1.83373728   -1.63609346   -0.08918227      16
Cr     1.84020473    0.03347518    1.78455042      17
Ni    -1.75028319   -1.74642120    0.01018982      18
