          18
Lattice="  24.8920   0.0000   0.0000   0.0000  24.8920   0.0000   0.0000   0.0000  24.8920 " ConfE="      -5924.2190" DelE="          0.0000"
Ni    -0.00828833    0.01534336    3.48442428       1
Ni    -0.00846464    3.53590217   -0.01798765       2
Ni     3.51595173   -0.02426529   -0.02357179       3
Cr    -3.61823121   -0.03306332   -0.10611708       4
Cr    -0.02241074   -3.59225699   -0.09914108       5
Co    -0.04992771   -0.00340503   -3.59183390       6
Co     1.70739815    0.02328480    1.71095844       7
Cr     1.63806575    1.73890062    0.07809011       8
Ni     1.77598163   -1.79909087   -0.04373131       9
Ni     1.73917307    0.01347548   -1.80741827      10
Cr    -1.71740522    0.03766959    1.70409856      11
Cr    -1.69128818    1.78748727    0.00686360      12
Ni    -0.00788736   -1.82482223    1.72069064      13
Co    -0.04037067    1.77359778   -1.83251947      14
Cr    -1.77864703   -1.76118985   -0.09192357      15
Co    -1.79005105    0.03317601   -1.74613186      16
Co    -0.03200703   -1.76159026   -1.77406157      17
Cr     0.00000000    0.00000000    0.00000000      18
          18
Lattice="  24.8920   0.0000   0.0000   0.0000  24.8920   0.0000   0.0000   0.0000  24.8920 " ConfE="      -5923.6399" DelE="          0.5790"
Ni    -0.02506991   -0.00919925    3.45432706       1
Ni    -0.01933927    3.45334968   -0.00313896       2
Ni     3.56744084   -0.03619854   -0.03127522       3
Cr    -3.68661304   -0.05969197   -0.12289779       4
Cr    -0.02168947   -3.58620911   -0.08485412       5
Co    -0.04550364    0.00306819   -3.60229959       6
Co     1.84357625   -0.06529606    1.76065270       7
Cr     1.84680927    1.79747937   -0.01201585       8
Ni     1.76738774   -1.76470389   -0.03305734       9
Ni     1.72372120    0.02865118   -1.75334098      10
Cr    -1.89860039   -0.05521181    1.74637299      11
Cr    -1.89921315    1.78666606   -0.11434607      12
Ni    -0.01498051   -1.77048928    1.69050006      13
Co    -0.02828683    1.75129729   -1.77929176      14
Cr    -1.68532870   -1.63317284   -0.10609130      15
Co    -1.75520095    0.04925854   -1.68956121      16
Co    -0.02932072   -1.72021007   -1.72203211      17
Cr     0.02523907    0.67463150    0.66935389      18
          18
Lattice="  24.8920   0.0000   0.0000   0.0000  24.8920   0.0000   0.0000   0.0000  24.8920 " ConfE="      -5924.2740" DelE="         -0.0550"
Ni    -0.01046104   -0.02027844    3.54215825       1
Ni    -0.01984017    3.56399614   -0.07511686       2
Ni     3.52408647   -0.02695746   -0.03655590       3
Cr    -3.63215074   -0.04342092   -0.11833824       4
Cr    -0.02761951   -3.58714413   -0.09804564       5
Co    -0.04124566   -0.01076528   -3.64037394       6
Co     1.69125768    0.02375742    1.69258293       7
Cr     1.61991702    1.69638774   -0.04620920       8
Ni     1.75435831   -1.77404555   -0.04944567       9
Ni     1.71468495    0.00229136   -1.80931187      10
Cr    -1.71188774   -0.02317687    1.69482578      11
Cr    -1.64903455    1.61785446   -0.12105307      12
Ni    -0.00604531   -1.77515980    1.69359243      13
Co    -0.02800427    1.75276181   -1.80633561      14
Cr    -1.66972374   -1.60970788   -0.13314407      15
Co    -1.76662039    0.01216030   -1.78520073      16
Co    -0.02973085   -1.75351538   -1.75772556      17
Cr    -0.00309970    1.73702102    1.70900601      18
