          20
Lattice="  24.8920   0.0000   0.0000   0.0000  24.8920   0.0000   0.0000   0.0000  24.8920 " ConfE="      -5936.6667" DelE="          0.0000"
Cr    -3.19186745   -1.61639841   -1.75509622       1
Cr    -3.21257598    1.53720346   -1.71059731       2
Ni     0.05467661   -0.00807731   -3.56289144       3
Co     3.64185208   -0.03978194   -0.02357898       4
Ni     0.10391767   -0.01833086    3.61672515       5
Ni     0.09889194    3.53964113    0.01000751       6
Cr     0.12720929   -3.64111215    0.08429254       7
Cr    -3.34913534   -0.05121711    0.07454252       8
Cr    -0.06049756    1.62578285   -1.69083752       9
Cr    -0.03880025   -1.63246797   -1.73394631      10
Cr     1.83733706   -0.02898383   -1.74108477      11
Co    -1.69893609   -0.04516902    1.85083149      12
Ni    -1.63643768   -1.84959909    0.08743645      13
Cr    -1.62598622    1.74118861    0.13638510      14
Co     0.05181851    1.77295621    1.78366918      15
Ni     0.10906270   -1.80301889    1.84604570      16
Ni     1.84791572   -0.01327912    1.78941857      17
Ni     1.81136557   -1.77931422    0.01329205      18
Co     1.82791382    1.72286687   -0.02196911      19
Co     0.00000000    0.00000000    0.00000000      20
          20
Lattice="  24.8920   0.0000   0.0000   0.0000  24.8920   0.0000   0.0000   0.0000  24.8920 " ConfE="      -5936.3381" DelE="          0.3286"
Cr    -3.13499843   -1.60371632   -1.72632032       1
Cr    -3.17844829    1.53355093   -1.67984620       2
Ni     0.04133349   -0.00981746   -3.51131496       3
Co     3.62968615   -0.04763944   -0.02638227       4
Ni     0.09090737   -0.02570631    3.61117011       5
Ni     0.10052941    3.59417377    0.01200984       6
Cr     0.14347509   -3.71467747    0.09264556       7
Cr    -3.28925836   -0.06390423    0.08964951       8
Cr    -0.00920660    1.88203303   -1.80261624       9
Cr     0.00431178   -1.83736531   -1.78040809      10
Cr     1.76054845   -0.02416046   -1.69872474      11
Co    -1.67156446   -0.06322963    1.78478555      12
Ni    -1.62479354   -1.98017807    0.11816012      13
Cr    -1.68286804    1.91251992    0.19976484      14
Co     0.02135767    1.75587020    1.72874715      15
Ni     0.10624193   -1.82016648    1.82924900      16
Ni     1.79410501   -0.01749846    1.74742644      17
Ni     1.77627117   -1.78114668    0.00334250      18
Co     1.72603443    1.67388898   -0.06878971      19
Co    -0.68691594    0.07618373   -0.64893731      20
          20
Lattice="  24.8920   0.0000   0.0000   0.0000  24.8920   0.0000   0.0000   0.0000  24.8920 " ConfE="      -5936.9708" DelE="         -0.3041"
Cr    -3.39514642   -1.79147945   -1.74635515       1
Cr    -3.43412765    1.69169084   -1.72726346       2
Ni     0.12461931   -0.02317506   -3.57504038       3
Co     3.66717641   -0.04135495   -0.01884196       4
Ni     0.09832279   -0.01677043    3.61338170       5
Ni     0.10626816    3.57358210    0.01598540       6
Cr     0.12947529   -3.65602037    0.07226586       7
Cr    -3.41146105   -0.03543497    0.04115741       8
Cr     0.10426258    1.68764515   -1.64824153       9
Cr     0.09738372   -1.75499907   -1.74927077      10
Cr     1.83189386   -0.03478503   -1.71438518      11
Co    -1.67807043   -0.02213825    1.77246182      12
Ni    -1.61224450   -1.80692549    0.03970796      13
Cr    -1.59023985    1.69467022    0.09529663      14
Co     0.04559615    1.75116268    1.73233087      15
Ni     0.10338225   -1.78361793    1.81096057      16
Ni     1.83228112   -0.01249371    1.76932033      17
Ni     1.80510156   -1.76190490    0.01814046      18
Co     1.80891455    1.70016334   -0.03133190      19
Co    -1.58213369   -0.03116394   -1.71966196      20
