          18
Lattice="  24.8920   0.0000   0.0000   0.0000  24.8920   0.0000   0.0000   0.0000  24.8920 " ConfE="      -5927.5662" DelE="          0.0000"
Cr     0.05010954    0.04046719    3.46188396       1
Cr     3.48221513   -0.00045601   -0.04503667       2
Co    -0.07515860   -0.00161294   -3.61795259       3
Cr    -3.56500686    0.01953398   -0.05296875       4
Cr    -0.08387414   -3.52389347   -0.03316170       5
Cr     0.02535392    3.54325776   -0.00517958       6
Ni    -0.00837433   -1.73563770    1.75491708       7
Cr     0.07838701    1.76030673    1.77471018       8
Ni     1.75723618   -1.75957786   -0.01613753       9
Co     1.76284704    1.75092647   -0.02834737      10
Co    -1.84925803    0.06449236    1.72110282      11
Cr     1.74996602   -0.00124766   -1.89234230      12
Cr    -1.79606644   -0.00936619   -1.80968128      13
Cr    -1.86330554   -1.79901911   -0.01247204      14
Cr    -1.76031648    1.83972812   -0.00941340      15
Ni    -0.02723647   -1.78755656   -1.82375622      16
Cr     0.00989924    1.76616009   -1.81515835      17
Ni     0.00000000    0.00000000    0.00000000      18
          18
Lattice="  24.8920   0.0000   0.0000   0.0000  24.8920   0.0000   0.0000   0.0000  24.8920 " ConfE="      -5926.8715" DelE="          0.6946"
Cr     0.04888780    0.03902234    3.43177814       1
Cr     3.46811774    0.01725068   -0.02232257       2
Co    -0.07041842    0.00603658   -3.59893551       3
Cr    -3.58749572   -0.00142685   -0.02996589       4
Cr    -0.10532757   -3.58967534   -0.05811862       5
Cr    -0.03010474    3.65678312   -0.08023132       6
Ni    -0.06430372   -1.87717221    1.73591952       7
Cr    -0.04433539    1.95365263    1.70923018       8
Ni     1.77442375   -1.88544741   -0.06513206       9
Co     1.81442236    1.97306320   -0.08998382      10
Co    -1.74976512    0.04840684    1.65748086      11
Cr     1.70689925    0.00251926   -1.77201890      12
Cr    -1.72000038   -0.01977248   -1.72669070      13
Cr    -1.82840613   -1.77569411   -0.01311304      14
Cr    -1.75669757    1.79624188   -0.02117849      15
Ni    -0.01738118   -1.78077606   -1.77785340      16
Cr     0.04182360    1.69432780   -1.63977217      17
Ni     1.05817700    0.06752560    1.03913561      18
          18
Lattice="  24.8920   0.0000   0.0000   0.0000  24.8920   0.0000   0.0000   0.0000  24.8920 " ConfE="      -5927.4835" DelE="          0.0827"
Cr    -0.00428856    0.03754434    3.50054569       1
Cr     3.55227488   -0.02049010   -0.09222558       2
Co    -0.08013789    0.00494231   -3.62086375       3
Cr    -3.61989930    0.00211844   -0.05132009       4
Cr    -0.10152098   -3.54778219   -0.03838959       5
Cr    -0.01083531    3.60585995   -0.05362552       6
Ni    -0.04246122   -1.72829792    1.69860406       7
Cr    -0.00507052    1.77379457    1.63358046       8
Ni     1.72855665   -1.75611987   -0.04496842       9
Co     1.75558301    1.75754157   -0.05427184      10
Co    -1.78120248    0.06456048    1.64565976      11
Cr     1.72110090   -0.01371340   -1.84050068      12
Cr    -1.76159911   -0.02219370   -1.75689779      13
Cr    -1.86355199   -1.77450305   -0.03193651      14
Cr    -1.79666858    1.80258681   -0.04216513      15
Ni    -0.03588771   -1.77066038   -1.79771348      16
Cr     0.02861606    1.65765873   -1.63885749      17
Ni     1.73890150    0.01261375    1.70192641      18
