          18
Lattice="  24.8920   0.0000   0.0000   0.0000  24.8920   0.0000   0.0000   0.0000  24.8920 " ConfE="      -5949.2313" DelE="          0.0000"
Ni     3.58928315   -0.07657275    0.01762837       1
Ni     0.07482081   -3.54820269    0.02637052       2
Co     0.06989915    3.54650819    0.02313489       3
Cr    -3.41780006   -0.04716303   -0.03072296       4
Co     0.07508622   -0.03041461    3.59951018       5
Cr     0.02584735   -0.02060936   -3.49951605       6
Ni     1.83579237   -0.06470847    1.76136349       7
Ni     1.79734930   -0.06870646   -1.70924861       8
Ni     0.09307709   -1.79081160    1.76798441       9
Ni     0.06184817   -1.81084027   -1.72990834      10
Ni     1.84924311    1.76653561    0.02201344      11
Ni     0.10401815    1.76681255    1.80222566      12
Co    -1.76658366   -1.77689971    0.01861942      13
Co    -1.73596240    1.75587341    0.01210870      14
Cr     0.07805122    1.73622610   -1.72684681      15
Cr    -1.68017231   -0.00305726    1.78702614      16
Co    -1.70450874    0.00012977   -1.78008558      17
Co     0.00000000    0.00000000    0.00000000      18
          18
Lattice="  24.8920   0.0000   0.0000   0.0000  24.8920   0.0000   0.0000   0.0000  24.8920 " ConfE="      -5944.6165" DelE="          4.6148"
Ni     3.68951089   -0.03310281   -0.03146531       1
Ni     0.02744571   -3.76244155   -0.02972033       2
Co     0.05987957    3.59343244    0.03814670       3
Cr    -3.47772498   -0.01442749   -0.02284062       4
Co     0.00511042    0.11612038    3.67031697       5
Cr     0.02424731   -0.03089752   -3.48610141       6
Ni     2.29673659   -0.58464800    3.13580891       7
Ni     1.74569717   -0.06671314   -1.61378047       8
Ni    -0.05201038   -1.69343708    0.99673965       9
Ni     0.03964417   -1.80252161   -1.61588648      10
Ni     1.86844907    1.93328477   -0.07487540      11
Ni     0.15273041    1.74869663    1.78231687      12
Co    -2.04285376   -1.81719363   -0.14364110      13
Co    -1.64117667    1.66494426    0.03066054      14
Cr     0.07365290    1.70608868   -1.69577162      15
Cr    -1.64575540   -0.06674193    1.78125370      16
Co    -1.67001463   -0.00253709   -1.73843016      17
Co     1.54934416   -0.08196125    0.98977514      18
          18
Lattice="  24.8920   0.0000   0.0000   0.0000  24.8920   0.0000   0.0000   0.0000  24.8920 " ConfE="      -5949.0493" DelE="          0.1821"
Ni     3.58823641   -0.07763380    0.02642960       1
Ni     0.09334341   -3.51080406    0.05337231       2
Co     0.07303126    3.53797744    0.02297895       3
Cr    -3.43773023   -0.04346372   -0.03528795       4
Co     0.06305985   -0.02481888    3.60395890       5
Cr     0.02384052   -0.01599391   -3.52515072       6
Ni     1.83179391   -1.79946714    3.61059420       7
Ni     1.81651658   -0.06052894   -1.73503133       8
Ni     0.08692600   -0.07078721    0.02667375       9
Ni     0.06991817   -1.81459681   -1.73725853      10
Ni     1.85315815    1.75870006    0.02136870      11
Ni     0.10384589    1.75406881    1.80240964      12
Co    -1.74492542   -1.77396310    0.04603310      13
Co    -1.71793384    1.73199046    0.01758881      14
Cr     0.08771954    1.74236786   -1.73903420      15
Cr    -1.69951451    0.00798869    1.81347969      16
Co    -1.69017694   -0.00355408   -1.76801799      17
Co     1.80046812   -0.07381306    1.78460522      18
