          18
Lattice="  24.8920   0.0000   0.0000   0.0000  24.8920   0.0000   0.0000   0.0000  24.8920 " ConfE="      -5949.7781" DelE="          0.0000"
Co    -0.05151129    0.00459702    3.61062506       1
Co     3.51682581   -0.05604971    0.03636470       2
Ni    -0.00814214    0.02715433   -3.54091038       3
Co    -3.58880918    0.04081109   -0.01058326       4
Co    -0.00889107   -3.55490134    0.01223243       5
Cr    -0.01672534    3.53886047    0.01395489       6
Co     0.04575561   -1.70989691    1.75481342       7
Ni     0.04004055    1.70873200    1.79039759       8
Cr     1.71426311   -1.64305881    0.12220707       9
Ni     1.76913530    1.71366871    0.04901941      10
Ni    -1.81018979   -0.01748493    1.79309204      11
Ni     1.75921238    0.01159103   -1.79515595      12
Co    -1.80252170    0.03787015   -1.76375390      13
Co    -1.76704727   -1.76028053    0.00757796      14
Co    -1.79278322    1.77154535    0.04535411      15
Ni    -0.01760558   -1.77556419   -1.75351353      16
Cr    -0.02905221    1.78580051   -1.68307567      17
Co     0.00000000    0.00000000    0.00000000      18
          18
Lattice="  24.8920   0.0000   0.0000   0.0000  24.8920   0.0000   0.0000   0.0000  24.8920 " ConfE="      -5948.9842" DelE="          0.7939"
Co    -0.01528044   -0.00175886    3.52419494       1
Co     3.44589354   -0.04576808    0.06770423       2
Ni     0.00379876    0.03628184   -3.52942504       3
Co    -3.58093816    0.04501447   -0.00392463       4
Co    -0.03289583   -3.60437060   -0.00286438       5
Cr    -0.02276761    3.65186832   -0.00748253       6
Co    -0.07072277   -1.93118774    1.83757206       7
Ni     0.00805292    1.84510027    1.78885650       8
Cr     1.81849174   -1.89174600    0.01461070       9
Ni     1.76887754    1.88185454    0.00264841      10
Ni    -1.74754295   -0.02112580    1.75097092      11
Ni     1.72784786    0.02681206   -1.73083413      12
Co    -1.73028171    0.05404335   -1.69641509      13
Co    -1.74054290   -1.76179736    0.01604991      14
Co    -1.75516201    1.78397651    0.04627666      15
Ni     0.00368424   -1.74608724   -1.69739602      16
Cr    -0.05532077    1.75623436   -1.60297766      17
Co     0.82783479   -0.12715698    0.76368454      18
          18
Lattice="  24.8920   0.0000   0.0000   0.0000  24.8920   0.0000   0.0000   0.0000  24.8920 " ConfE="      -5949.7041" DelE="          0.0741"
Co    -0.05058575   -0.01242767    3.61905753       1
Co     3.56879968   -0.03711538    0.01695466       2
Ni    -0.00705481    0.03005673   -3.55152544       3
Co    -3.60202772    0.04401976   -0.01130658       4
Co    -0.02443306   -3.58114295    0.00073074       5
Cr    -0.02699464    3.57928671    0.00212935       6
Co    -0.01228502   -1.75336363    1.73592861       7
Ni     0.00477243    1.70627053    1.75690712       8
Cr     1.67681904   -1.65526574    0.11017486       9
Ni     1.72343277    1.71952431    0.01885233      10
Ni    -1.77886816   -0.02297949    1.77277501      11
Ni     1.71597009    0.01335893   -1.74358583      12
Co    -1.77289066    0.05004222   -1.74078557      13
Co    -1.75441073   -1.73910516    0.00604518      14
Co    -1.75613903    1.74399606    0.02689015      15
Ni    -0.02317375   -1.74238237   -1.71385454      16
Cr    -0.07498863    1.76390623   -1.66010538      17
Co     1.71020461   -0.08536370    1.73337468      18
