          18
Lattice="  24.8920   0.0000   0.0000   0.0000  24.8920   0.0000   0.0000   0.0000  24.8920 " ConfE="      -5932.5620" DelE="          0.0000"
Ni     3.50853401    0.03374404    0.07951873       1
Co    -0.01735534   -3.45834528    0.07144914       2
Cr    -0.05165728    0.02888143    3.62304431       3
Co    -0.04508436    0.04832519   -3.47652866       4
Cr    -3.60503979    0.11163960    0.07896289       5
Cr    -0.06490331    3.68224240    0.07410502       6
Ni    -0.01580906   -1.72383142    1.80105148       7
Cr    -0.01723368   -1.79420832   -1.70425560       8
Co     1.70771026    0.05575241    1.77738664       9
Cr     1.73642085   -0.06809797   -1.68974451      10
Ni    -1.82384442    0.06101819    1.81848718      11
Co    -1.82675068   -1.73041295    0.02569188      12
Cr     1.69580518    1.88021232    0.03667271      13
Cr    -1.84060835    0.08529427   -1.70346044      14
Cr    -0.07376413    1.83869719    1.87802850      15
Cr    -0.07446512    1.88957672   -1.79400064      16
Co    -1.76038406    1.87246694    0.04669510      17
Cr     0.00000000    0.00000000    0.00000000      18
          18
Lattice="  24.8920   0.0000   0.0000   0.0000  24.8920   0.0000   0.0000   0.0000  24.8920 " ConfE="      -5932.0946" DelE="          0.4674"
Ni     3.43348814    0.04303731    0.06589092       1
Co    -0.03405016   -3.41462033    0.10704685       2
Cr    -0.09484017    0.06791767    3.71707493       3
Co    -0.04813971    0.05679208   -3.54625049       4
Cr    -3.58124155    0.10637942    0.06630079       5
Cr    -0.05773115    3.67657473    0.11459940       6
Ni    -0.11378195   -1.73807133    1.99124470       7
Cr    -0.08533263   -1.87742716   -1.85301204       8
Co     1.71285864    0.11490328    1.94793126       9
Cr     1.69860264    0.01570610   -1.86633867      10
Ni    -1.79659012    0.04940653    1.81624756      11
Co    -1.76844283   -1.70282695    0.03834638      12
Cr     1.70358926    1.87860634    0.06288615      13
Cr    -1.62836039    0.02782585   -1.59782837      14
Cr    -0.04767132    1.73943987    1.77607467      15
Cr    -0.02971868    1.81018487   -1.67366882      16
Co    -1.71936869    1.82732724    0.05271267      17
Cr     0.77167661   -0.79768978    0.06529608      18
          18
Lattice="  24.8920   0.0000   0.0000   0.0000  24.8920   0.0000   0.0000   0.0000  24.8920 " ConfE="      -5932.6417" DelE="         -0.0797"
Ni     3.52735184    0.06106212    0.07990486       1
Co    -0.06344422   -3.52679566    0.08118278       2
Cr    -0.06752818    0.04206140    3.63163483       3
Co    -0.04403246    0.06450438   -3.52299523       4
Cr    -3.59441295    0.11712412    0.06681707       5
Cr    -0.06890133    3.70216940    0.10639272       6
Ni    -0.05928618   -1.70709180    1.81777899       7
Cr    -0.05625901   -1.74750675   -1.70091697       8
Co     1.65995383    0.10776562    1.77085490       9
Cr     1.58874585    0.05686644   -1.64242991      10
Ni    -1.80454201    0.06835355    1.79068624      11
Co    -1.76971945   -1.70554410    0.01929222      12
Cr     1.65955446    1.85651773    0.07101813      13
Cr    -1.68194743    0.07517668   -1.62054399      14
Cr    -0.07835369    1.82676338    1.84988719      15
Cr    -0.07359689    1.89088261   -1.73460895      16
Co    -1.73296430    1.86119044    0.05074282      17
Cr     1.66922100   -1.70801892    0.09670159      18
