          18
Lattice="  24.8920   0.0000   0.0000   0.0000  24.8920   0.0000   0.0000   0.0000  24.8920 " ConfE="      -5937.7628" DelE="          0.0000"
Co    -0.01536298    0.00211313    3.33024802       1
Ni     3.50991742    0.03453278   -0.17803873       2
Cr    -0.06497632    0.06806155   -3.85005627       3
Ni    -3.60776591    0.02305564   -0.17591886       4
Cr    -0.01402002   -3.49453480   -0.16120385       5
Co    -0.08234668    3.57971742   -0.18090265       6
Co    -0.00790950   -1.72113590    1.55716934       7
Co    -0.03320700    1.77554839    1.60267926       8
Co     1.70131672   -1.66862760   -0.23155233       9
Ni     1.74876174    1.75504912   -0.12712542      10
Co    -1.84980272    0.02423097    1.60802116      11
Cr     1.71941183    0.03019170   -1.99893354      12
Ni    -1.79890522    0.02539754   -1.95692557      13
Cr    -1.78699126   -1.71252388   -0.10639662      14
Ni    -1.82926885    1.79331670   -0.16915383      15
Cr    -0.05960670   -1.71909642   -1.94954652      16
Ni    -0.03854879    1.74951537   -1.94245614      17
Cr     0.00000000    0.00000000    0.00000000      18
          18
Lattice="  24.8920   0.0000   0.0000   0.0000  24.8920   0.0000   0.0000   0.0000  24.8920 " ConfE="      -5936.8963" DelE="          0.8665"
Co    -0.00640898    0.00164005    3.28776485       1
Ni     3.41578446    0.02401468   -0.19803164       2
Cr    -0.11173005    0.08235239   -3.74718105       3
Ni    -3.52300270    0.03691394   -0.19837722       4
Cr    -0.03640369   -3.67799338   -0.15983720       5
Co    -0.08534167    3.68630377   -0.19265035       6
Co    -0.06411269   -1.91893153    1.60872351       7
Co    -0.06840432    1.89826719    1.58292024       8
Co     1.70482992   -1.81084822   -0.24350592       9
Ni     1.73468204    1.87714682   -0.20962042      10
Co    -1.76417936    0.02430156    1.56037482      11
Cr     1.56129517    0.01622941   -1.94980752      12
Ni    -1.07677704    0.02774431   -1.26434676      13
Cr    -1.75559969   -1.81294606   -0.01065496      14
Ni    -1.84584770    1.94468500   -0.13783222      15
Cr    -0.02827252   -1.92676300   -1.88880844      16
Ni    -0.00109236    1.95738852   -1.98051529      17
Cr     0.73151981   -0.02144122    0.73310187      18
          18
Lattice="  24.8920   0.0000   0.0000   0.0000  24.8920   0.0000   0.0000   0.0000  24.8920 " ConfE="      -5938.1028" DelE="         -0.3400"
Co    -0.03440743    0.00792725    3.35874074       1
Ni     3.51594307    0.03726591   -0.20979359       2
Cr    -0.11406462    0.06391544   -3.78582355       3
Ni    -3.56911865    0.02497294   -0.19376735       4
Cr    -0.04505295   -3.49016978   -0.20040826       5
Co    -0.09567609    3.58714991   -0.20105585       6
Co    -0.04866536   -1.75603586    1.54599951       7
Co    -0.04778909    1.80246243    1.59876990       8
Co     1.71147714   -1.70611507   -0.25765644       9
Ni     1.73531000    1.78926245   -0.18576560      10
Co    -1.81317195    0.03749028    1.62197487      11
Cr     1.73443797    0.02989666   -2.01676742      12
Ni    -0.08549128    0.03606474   -0.22918613      13
Cr    -1.80269265   -1.71989273   -0.13057126      14
Ni    -1.84762152    1.80954499   -0.19831298      15
Cr    -0.13924488   -1.68341082   -1.97537997      16
Ni    -0.08386033    1.74786011   -1.98821926      17
Cr     1.68758886    0.00072686    1.58763486      18
