          18
Lattice="  24.8920   0.0000   0.0000   0.0000  24.8920   0.0000   0.0000   0.0000  24.8920 " ConfE="      -5928.9652" DelE="          0.0000"
Ni    -3.56016017    0.15965717    0.05725638       1
Co    -0.07582815   -3.32876677    0.09478853       2
Co     3.54514241    0.14195299    0.04111113       3
Cr    -0.00903581    3.88429407    0.04317659       4
Ni     0.02031688    0.15559981   -3.46924977       5
Co    -0.09228690    0.14862150    3.56191133       6
Cr    -1.75337895    0.08258133   -1.65524442       7
Cr    -1.77090154    0.11091012    1.71514102       8
Co    -0.04280545   -1.59820933   -1.66164103       9
Cr    -0.03827597   -1.67583611    1.75796129      10
Cr    -1.77932556    2.00518822    0.06994764      11
Co     1.81497486   -1.62458936    0.06569274      12
Co     1.70616456    1.93803288    0.06322280      13
Ni    -0.01426398    1.96704997   -1.67775892      14
Cr    -0.02005168    1.98540269    1.82001854      15
Co     1.78048528    0.16237765   -1.71565757      16
Ni     1.74723268    0.17023887    1.82836173      17
Cr     0.00000000    0.00000000    0.00000000      18
          18
Lattice="  24.8920   0.0000   0.0000   0.0000  24.8920   0.0000   0.0000   0.0000  24.8920 " ConfE="      -5928.0046" DelE="          0.9606"
Ni    -3.45234196    0.18159863    0.07288324       1
Co    -0.07647322   -3.27165726    0.08316907       2
Co     3.46218664    0.17490147    0.04051026       3
Cr     0.00032814    3.76349393    0.01868795       4
Ni     0.03622014    0.15533783   -3.57999702       5
Co    -0.09179531    0.13752441    3.68756124       6
Cr    -1.76507178    0.18025704   -1.85070739       7
Cr    -1.79733309    0.18971575    1.97648793       8
Co     0.01542936   -1.60838736   -1.82185864       9
Cr     0.11655549   -1.71213242    1.93202508      10
Cr    -1.66714016    1.96652347    0.05219648      11
Co     1.72140906   -1.54634374    0.06035804      12
Co     0.98798919    1.29911748    0.09865977      13
Ni    -0.05040731    1.97632779   -1.86085784      14
Cr    -0.08320144    1.92187919    1.93785846      15
Co     1.78587215    0.14029528   -1.82359605      16
Ni     1.75171448    0.12757018    1.97550016      17
Cr    -0.74301109   -0.67333071    0.05260146      18
          18
Lattice="  24.8920   0.0000   0.0000   0.0000  24.8920   0.0000   0.0000   0.0000  24.8920 " ConfE="      -5929.5808" DelE="         -0.6156"
Ni    -3.57103119    0.17461695    0.06217477       1
Co    -0.04807221   -3.39915216    0.07348050       2
Co     3.55231864    0.15280584    0.03144037       3
Cr    -0.00543006    3.80929793    0.06668302       4
Ni     0.04928304    0.17325818   -3.47440345       5
Co    -0.07397497    0.18757436    3.58591777       6
Cr    -1.72067420    0.13537352   -1.69642597       7
Cr    -1.77298395    0.20281313    1.79849573       8
Co    -0.01977717   -1.58833673   -1.67048432       9
Cr     0.06117993   -1.58633851    1.77405203      10
Cr    -1.80805546    1.99897272    0.05824695      11
Co     1.74811295   -1.60772353    0.06856705      12
Co     0.01825392    0.27521112    0.07160841      13
Ni     0.04764188    1.99270895   -1.65942449      14
Cr     0.01499669    2.00131180    1.79341613      15
Co     1.80904865    0.18851641   -1.71498450      16
Ni     1.77065663    0.24499360    1.80964102      17
Cr    -1.71925370   -1.61821204    0.06802592      18
