          18
Lattice="  24.8920   0.0000   0.0000   0.0000  24.8920   0.0000   0.0000   0.0000  24.8920 " ConfE="      -5949.7650" DelE="          0.0000"
Co    -3.56435982   -0.06684160    0.15497584       1
Cr    -0.05888622   -3.56608651    0.07939622       2
Co     3.49992144   -0.01237478    0.12134067       3
Co    -0.03615155    3.51091374    0.13641685       4
Cr    -0.05467758   -0.05417086    3.69723071       5
Cr    -0.04445774   -0.04950240   -3.27514362       6
Ni    -1.78001121   -0.07122838    1.82665152       7
Co    -1.78740116   -0.04745325   -1.58658847       8
Ni    -0.05533575   -1.79820456    1.82535916       9
Co    -0.07227422   -1.82328645   -1.58998284      10
Cr    -1.84755295    1.78924959    0.12535396      11
Ni     1.76182634   -1.80980443    0.11745462      12
Cr     1.81183645    1.70940783    0.11131262      13
Cr     0.01197513    1.73533052    1.84749404      14
Co    -0.03543463    1.76759163   -1.62192325      15
Co     1.72691526   -0.03132111    1.90835156      16
Co     1.75900247   -0.03225222   -1.66586391      17
Cr     0.00000000    0.00000000    0.00000000      18
          18
Lattice="  24.8920   0.0000   0.0000   0.0000  24.8920   0.0000   0.0000   0.0000  24.8920 " ConfE="      -5948.8925" DelE="          0.8725"
Co    -3.50954086   -0.05181757    0.17222076       1
Cr    -0.04441272   -3.55206950    0.10987781       2
Co     3.50070357   -0.02732077    0.12962014       3
Co    -0.05780589    3.52592501    0.14149356       4
Cr    -0.04688889   -0.04701705    3.79756179       5
Cr    -0.02189846   -0.01998663   -3.44178725       6
Ni    -1.83253578   -0.00636305    2.01239070       7
Co    -1.84360241    0.00407090   -1.74636424       8
Ni    -0.02926878   -1.81012837    1.99359463       9
Co     0.00494834   -1.81733870   -1.75838880      10
Cr    -1.76245865    1.73415731    0.10847739      11
Ni     1.66842180   -1.77416632    0.13041048      12
Cr     1.62541457    1.58641912    0.09397746      13
Cr    -0.01038894    1.64211030    1.81503393      14
Co    -0.06312367    1.66686788   -1.56540848      15
Co     1.68137259   -0.02867715    1.89948161      16
Co     1.70846653   -0.03077682   -1.63180178      17
Cr    -0.88814407   -0.84331235    0.04797198      18
          18
Lattice="  24.8920   0.0000   0.0000   0.0000  24.8920   0.0000   0.0000   0.0000  24.8920 " ConfE="      -5949.7729" DelE="         -0.0078"
Co    -3.61338494   -0.02912851    0.15502453       1
Cr    -0.01087253   -3.59237788    0.08391567       2
Co     3.53287060   -0.01098267    0.12731230       3
Co    -0.04593541    3.55615807    0.13602941       4
Cr    -0.05103797   -0.05398486    3.72367839       5
Cr    -0.02432071   -0.04675785   -3.38466945       6
Ni    -1.76721268   -0.03767983    1.85024796       7
Co    -1.77477920   -0.03211093   -1.58327526       8
Ni    -0.02686151   -1.78297116    1.86732703       9
Co    -0.04187515   -1.76393192   -1.60752981      10
Cr    -1.73723595    1.71186281    0.09332766      11
Ni     1.71552187   -1.76329301    0.12379352      12
Cr     1.65565850    1.62536148    0.09905534      13
Cr     0.01081553    1.71231645    1.83251703      14
Co    -0.04148939    1.70766097   -1.57260746      15
Co     1.71778178   -0.01357700    1.90052601      16
Co     1.72846516   -0.01295133   -1.63061929      17
Cr    -1.76598982   -1.78406359    0.09054808      18
