          18
Lattice="  24.8920   0.0000   0.0000   0.0000  24.8920   0.0000   0.0000   0.0000  24.8920 " ConfE="      -5923.2056" DelE="          0.0000"
Co     0.01543842    3.42829238   -0.03565010       1
Ni     3.51946713   -0.05024238    0.01421781       2
Ni    -0.01678380   -3.59348580   -0.01412070       3
Cr    -3.64151563   -0.09184596    0.04920391       4
Co    -0.02922871   -0.02918885   -3.53804211       5
Co    -0.03887384   -0.05460764    3.55464247       6
Cr     0.04483647    1.70919707   -1.64807126       7
Cr     0.05379499    1.60827530    1.65933905       8
Ni     1.75863443    0.00697102   -1.71573877       9
Co     1.71494823   -0.01037556    1.70145811      10
Ni    -1.86548302    1.71338035   -0.00119931      11
Cr     1.77606435   -1.86795523   -0.03448188      12
Ni    -1.77868813   -1.83602917   -0.01444273      13
Ni    -1.82231701   -0.04624984   -1.77981434      14
Ni    -1.80041306   -0.06549186    1.76788779      15
Co     0.05703362   -1.79992793   -1.80763538      16
Co    -0.01629558   -1.79156505    1.73765734      17
Co     0.00000000    0.00000000    0.00000000      18
          18
Lattice="  24.8920   0.0000   0.0000   0.0000  24.8920   0.0000   0.0000   0.0000  24.8920 " ConfE="      -5922.7499" DelE="          0.4557"
Co     0.02189372    3.42362058   -0.03049867       1
Ni     3.48564892   -0.04217594    0.01358863       2
Ni    -0.01591216   -3.61455749   -0.00998758       3
Cr    -3.62581832   -0.05992386    0.04869080       4
Co    -0.01860879   -0.07092048   -3.61182556       5
Co    -0.03198523   -0.06129387    3.59382886       6
Cr    -0.04912527    1.70530987   -1.93214617       7
Cr    -0.06765067    1.67389128    1.93403862       8
Ni     1.78600697   -0.05307937   -1.84573933       9
Co     1.76100143   -0.07587837    1.81320863      10
Ni    -1.76878033    1.68483572   -0.01337063      11
Cr     1.65497269   -1.74449256    0.00759386      12
Ni    -1.73958873   -1.80245974   -0.01633402      13
Ni    -1.78073086   -0.04996119   -1.78168461      14
Ni    -1.74919872   -0.06517974    1.75110976      15
Co     0.06286445   -1.78003796   -1.78631593      16
Co     0.01034090   -1.76565716    1.71565853      17
Co     0.70418748    0.91996570    0.00813576      18
          18
Lattice="  24.8920   0.0000   0.0000   0.0000  24.8920   0.0000   0.0000   0.0000  24.8920 " ConfE="      -5923.3641" DelE="         -0.1584"
Co    -0.03733766    3.51074175   -0.02242602       1
Ni     3.54021906   -0.06616958    0.01554139       2
Ni    -0.02069747   -3.62081536   -0.01231224       3
Cr    -3.65181947   -0.08141253    0.04866546       4
Co    -0.02565122   -0.05256424   -3.56573740       5
Co    -0.04466678   -0.06205904    3.57424595       6
Cr     0.00692667    1.68554943   -1.68864589       7
Cr     0.03121114    1.60018635    1.66959896       8
Ni     1.71900160   -0.03791573   -1.71309774       9
Co     1.66533202   -0.05590490    1.68225308      10
Ni    -1.79999020    1.68586873   -0.00434093      11
Cr     1.74304742   -1.84546355   -0.03761633      12
Ni    -1.76171125   -1.82044727   -0.01433322      13
Ni    -1.79376022   -0.05168933   -1.76756046      14
Ni    -1.76650066   -0.06720581    1.74529535      15
Co     0.05126433   -1.79878560   -1.77812019      16
Co    -0.00495555   -1.77524852    1.69104840      17
Co     1.68813864    1.70466862    0.01124608      18
