          18
Lattice="  24.8920   0.0000   0.0000   0.0000  24.8920   0.0000   0.0000   0.0000  24.8920 " ConfE="      -5947.9133" DelE="          0.0000"
Co     0.03821730    0.04985716   -3.51273008       1
Ni     0.01384465    3.47106731    0.03384131       2
Ni     0.01919750   -0.00146661    3.59856947       3
Cr    -0.01138104   -3.61907352    0.00903275       4
Cr    -3.55568635   -0.01730512   -0.00713862       5
Ni     3.53276077   -0.02395063   -0.01452229       6
Co    -1.76700979    0.06385240   -1.71552874       7
Cr     1.68899519    0.08990148   -1.81797078       8
Co    -1.76221892    1.75827527    0.00261386       9
Cr     1.74213172    1.70188521    0.03375370      10
Ni    -0.01997425   -1.79170783   -1.77027059      11
Ni     0.01891748    1.73968289    1.84637602      12
Cr     0.02003971   -1.76979168    1.80941226      13
Ni    -1.74986691   -1.78568279    0.01717540      14
Ni     1.74722154   -1.79032083   -0.00190960      15
Cr    -1.77565456    0.05656864    1.77754797      16
Co     1.80697008   -0.01803963    1.81922450      17
Ni     0.00000000    0.00000000    0.00000000      18
          18
Lattice="  24.8920   0.0000   0.0000   0.0000  24.8920   0.0000   0.0000   0.0000  24.8920 " ConfE="      -5947.2158" DelE="          0.6976"
Co     0.01249828    0.04112327   -3.49544269       1
Ni     0.03022195    3.40949692   -0.00253848       2
Ni     0.01944526    0.01444956    3.58213135       3
Cr    -0.00959547   -3.62895634   -0.00312796       4
Cr    -3.63366602   -0.02622820   -0.00491949       5
Ni     3.59011638   -0.05137231   -0.00182346       6
Co    -1.95019178   -0.00669238   -1.73196100       7
Cr     1.87841558   -0.01273219   -1.87136590       8
Co    -1.92293691    1.78425205    0.01530225       9
Cr     1.94183322    1.75849602    0.10128897      10
Ni    -0.01439013   -1.72163934   -1.72746213      11
Ni     0.03497860    1.72186904    1.77892132      12
Cr     0.01885843   -1.69183742    1.73520609      13
Ni    -1.74572362   -1.76311991    0.01610870      14
Ni     1.76100036   -1.78397554   -0.00915935      15
Cr    -1.72644290    0.07844884    1.68624137      16
Co     1.77860338   -0.02052980    1.75672533      17
Ni     0.05994393    0.70892903   -0.65980097      18
          18
Lattice="  24.8920   0.0000   0.0000   0.0000  24.8920   0.0000   0.0000   0.0000  24.8920 " ConfE="      -5948.0118" DelE="         -0.0985"
Co     0.02376867    0.00113897   -3.57096560       1
Ni     0.01753964    3.50375354    0.02996931       2
Ni     0.01557147    0.00785529    3.61160280       3
Cr    -0.01447717   -3.64856961    0.00617266       4
Cr    -3.59341226   -0.02502477    0.01120949       5
Ni     3.56137117   -0.04211436   -0.00178404       6
Co    -1.78552556    0.00367211   -1.69031972       7
Cr     1.74011242   -0.01834904   -1.77190156       8
Co    -1.75805465    1.69936255    0.05086875       9
Cr     1.74397808    1.65259313    0.04914273      10
Ni    -0.01602405   -1.76201429   -1.74293222      11
Ni     0.02599597    1.72245375    1.79958174      12
Cr     0.01292127   -1.72621007    1.79599210      13
Ni    -1.71216326   -1.75531261    0.04151295      14
Ni     1.72030534   -1.78551751    0.00771864      15
Cr    -1.73399515    0.04898788    1.74796147      16
Co     1.75746645   -0.03032795    1.76742691      17
Ni    -0.00036955    1.69007927   -1.71095653      18
