          18
Lattice="  24.8920   0.0000   0.0000   0.0000  24.8920   0.0000   0.0000   0.0000  24.8920 " ConfE="      -5922.8712" DelE="          0.0000"
Co    -0.03719625    0.02392171   -3.44974634       1
Co    -0.00562002    3.56556082    0.00212508       2
Cr     0.03294462    0.05892677    3.65378154       3
Co     0.00811897   -3.50743437    0.09199501       4
Ni    -3.52606194    0.00978054    0.02823772       5
Cr     3.56981012    0.01287062   -0.02233842       6
Cr    -1.63222538   -0.10889429   -1.79474211       7
Ni     1.70674046    0.05273133   -1.73806473       8
Ni    -1.72189436    1.75188622   -0.03958583       9
Ni     1.71575954    1.80925393   -0.00862689      10
Co     0.00214879   -1.80730746   -1.71121544      11
Ni    -0.01003766    1.78567470    1.83176404      12
Ni     0.02517534   -1.71277518    1.86012464      13
Co    -1.77146024   -1.73524564    0.07848382      14
Co     1.79075067   -1.73518003    0.07425702      15
Cr    -1.75946385    0.01175933    1.86341957      16
Co     1.82371987    0.04938113    1.82217437      17
Cr     0.00000000    0.00000000    0.00000000      18
          18
Lattice="  24.8920   0.0000   0.0000   0.0000  24.8920   0.0000   0.0000   0.0000  24.8920 " ConfE="      -5921.9789" DelE="          0.8923"
Co     0.00348130    0.04638672   -3.41635278       1
Co     0.01673824    3.47971502   -0.02307827       2
Cr     0.01846761    0.07399000    3.62135485       3
Co     0.00724665   -3.49582535    0.07498002       4
Ni    -3.60252730    0.00114340    0.03727755       5
Cr     3.66116567   -0.08148504    0.07327738       6
Cr    -1.79165476   -0.16066429   -1.79398292       7
Ni     1.89831799    0.01625717   -1.74414907       8
Ni    -1.93624607    1.81858107    0.04908600       9
Ni     1.90263495    1.78256429    0.04626468      10
Co     0.02244105   -1.70025996   -1.68458569      11
Ni    -0.00170489    1.75290617    1.75154294      12
Ni     0.02989255   -1.66633767    1.81494621      13
Co    -1.73391954   -1.64542264    0.06380401      14
Co     1.78837884   -1.69402867    0.06654256      15
Cr    -1.71673701    0.02770365    1.74823550      16
Co     1.82584551    0.04809411    1.80603289      17
Cr    -0.08239242    0.84970427   -0.83361185      18
          18
Lattice="  24.8920   0.0000   0.0000   0.0000  24.8920   0.0000   0.0000   0.0000  24.8920 " ConfE="      -5922.8589" DelE="          0.0123"
Co    -0.02217785    0.00980507   -3.52464006       1
Co    -0.00426072    3.59003065    0.03921534       2
Cr     0.03602307    0.05783134    3.65874443       3
Co     0.00484309   -3.53035317    0.09540703       4
Ni    -3.56392940    0.00321839    0.04442361       5
Cr     3.58684258    0.01965401   -0.01850417       6
Cr    -1.64548325   -0.12753592   -1.73514205       7
Ni     1.68840589    0.02605649   -1.69536428       8
Ni    -1.73393511    1.72028850    0.01362034       9
Ni     1.71614213    1.77733933    0.03056669      10
Co    -0.00889847   -1.73897138   -1.67904965      11
Ni    -0.01142515    1.74996826    1.80692899      12
Ni     0.03558323   -1.68667755    1.83845900      13
Co    -1.73981069   -1.67750861    0.08760138      14
Co     1.78706292   -1.72464909    0.08349785      15
Cr    -1.73508715   -0.00763220    1.84195152      16
Co     1.82998760    0.04503104    1.82621605      17
Cr    -0.03939646    1.77850915   -1.75064220      18
