          18
Lattice="  24.8920   0.0000   0.0000   0.0000  24.8920   0.0000   0.0000   0.0000  24.8920 " ConfE="      -5927.8521" DelE="          0.0000"
Cr    -0.00303961    3.64077863   -0.01052927       1
Ni     3.50790961   -0.01364269   -0.00240136       2
Ni    -0.02566293   -3.62150706    0.01149266       3
Cr    -3.55933201    0.00843241    0.02289365       4
Cr    -0.01600362    0.03138993   -3.48266655       5
Cr     0.01926931    0.03356786    3.54328101       6
Cr     0.20099627    1.78505524   -1.56006151       7
Cr     0.25020118    1.83196642    1.53176795       8
Co     1.73974770    0.00024119   -1.75592315       9
Co     1.76420939   -0.00418899    1.74397657      10
Cr    -1.80737649    1.82151956    0.00897943      11
Cr     1.75317548   -1.84922554   -0.03889173      12
Cr    -1.78437191   -1.81956352    0.02030237      13
Cr    -1.75669584   -0.00937202   -1.74947232      14
Cr    -1.70798833    0.10393164    1.78014099      15
Co    -0.05371787   -1.81086656   -1.75567842      16
Cr    -0.00634370   -1.77679904    1.74314902      17
Co     0.00000000    0.00000000    0.00000000      18
          18
Lattice="  24.8920   0.0000   0.0000   0.0000  24.8920   0.0000   0.0000   0.0000  24.8920 " ConfE="      -5926.9485" DelE="          0.9036"
Cr     0.04570271    3.59312045    0.01960408       1
Ni     3.48384857   -0.04966008    0.01482407       2
Ni    -0.01003717   -3.64111270    0.01514456       3
Cr    -3.57271159    0.03556578    0.00479906       4
Cr    -0.03949329    0.00793022   -3.56033387       5
Cr     0.01561389   -0.00201394    3.65074966       6
Cr     0.08048341    1.80570605   -1.86716121       7
Cr     0.06312093    1.79788975    1.94501266       8
Co     1.72314366   -0.06324642   -1.83632028       9
Co     1.78347024   -0.09056993    1.87599786      10
Cr    -1.63437006    1.83415895    0.00004288      11
Cr     1.61375724   -1.73239208   -0.05650941      12
Cr    -1.65952475   -1.81088721   -0.00303540      13
Cr    -1.64178600    0.02233191   -1.64447161      14
Cr    -1.61300288    0.06045783    1.60554747      15
Co    -0.04352158   -1.79590959   -1.76105546      16
Cr     0.04920027   -1.69659038    1.73412182      17
Co     1.09937531    1.19361008    0.05735900      18
          18
Lattice="  24.8920   0.0000   0.0000   0.0000  24.8920   0.0000   0.0000   0.0000  24.8920 " ConfE="      -5927.3196" DelE="          0.5325"
Cr    -0.00360248    3.58809207    0.01865298       1
Ni     3.58315750   -0.00185061   -0.01715407       2
Ni    -0.02070954   -3.59696481    0.02226717       3
Cr    -3.63829732    0.01002856   -0.01130275       4
Cr    -0.02950949    0.02545281   -3.51260307       5
Cr     0.01214910    0.04403484    3.58099546       6
Cr     0.04777980    1.70798688   -1.60918435       7
Cr     0.03951524    1.64985782    1.61932710       8
Co     1.71416701   -0.00782650   -1.74380198       9
Co     1.79024444    0.00150948    1.74525570      10
Cr    -1.82443894    1.79877438   -0.00626187      11
Cr     1.73384205   -1.75050946   -0.05789813      12
Cr    -1.76321782   -1.79945306    0.02228493      13
Cr    -1.73060398   -0.02318604   -1.68711919      14
Cr    -1.77667223    0.04368727    1.69813548      15
Co    -0.06253771   -1.75840952   -1.71588219      16
Cr     0.04401910   -1.59614263    1.67057292      17
Co     1.76538701    1.75518210    0.00656554      18
