          18
Lattice="  24.8920   0.0000   0.0000   0.0000  24.8920   0.0000   0.0000   0.0000  24.8920 " ConfE="      -5936.9157" DelE="          0.0000"
Co    -0.01271527   -0.01675038   -3.47467638       1
Cr    -0.02385369    3.44682500    0.03603821       2
Ni    -0.02992355   -0.01736933    3.56549078       3
Co     0.00787543   -3.55246015    0.02095173       4
Co    -3.55468858   -0.00276204    0.01299446       5
Cr     3.54248800   -0.04192487   -0.01155703       6
Ni    -1.75898923    0.04532578   -1.74079156       7
Co     1.74454465   -0.03225214   -1.74935838       8
Co    -1.73657961    1.78644622   -0.01973455       9
Ni     1.74816618    1.72384772    0.01540796      10
Cr    -0.02891515   -1.76829225   -1.79757116      11
Co    -0.01528494    1.78386642    1.80212126      12
Co    -0.02618302   -1.79633949    1.75584238      13
Cr    -1.71247086   -1.76860666   -0.04454874      14
Co     1.73224611   -1.82911842    0.01434325      15
Co    -1.80280622   -0.00094988    1.74690010      16
Ni     1.76115555   -0.01552233    1.80150865      17
Ni     0.00000000    0.00000000    0.00000000      18
          18
Lattice="  24.8920   0.0000   0.0000   0.0000  24.8920   0.0000   0.0000   0.0000  24.8920 " ConfE="      -5936.2382" DelE="          0.6775"
Co    -0.01721206   -0.01101005   -3.43441218       1
Cr    -0.02799837    3.38561994    0.02665665       2
Ni    -0.03206585   -0.00701608    3.54252082       3
Co     0.01786236   -3.55419273    0.02124101       4
Co    -3.64719662   -0.06334187    0.00786587       5
Cr     3.61705367   -0.05560241    0.01002407       6
Ni    -1.95974269   -0.02609223   -1.78734407       7
Co     1.90330204   -0.06136052   -1.78324007       8
Co    -2.01937765    1.75788670    0.07769247       9
Ni     1.90288881    1.73573582    0.06062067      10
Cr    -0.02592703   -1.65777325   -1.72354486      11
Co    -0.02855697    1.74787227    1.69899896      12
Co    -0.04366974   -1.71912047    1.65966254      13
Cr    -1.66453566   -1.67356740   -0.01836400      14
Co     1.69965771   -1.75624034   -0.01485371      15
Co    -1.78846395   -0.02261467    1.68355935      16
Ni     1.76422213   -0.00244224    1.77613341      17
Ni    -0.05313600    0.91148240   -0.90533939      18
          18
Lattice="  24.8920   0.0000   0.0000   0.0000  24.8920   0.0000   0.0000   0.0000  24.8920 " ConfE="      -5936.8052" DelE="          0.1106"
Co    -0.02968309   -0.04472594   -3.52447584       1
Cr    -0.00289702    3.50147974    0.08895816       2
Ni    -0.03562543   -0.01693655    3.57166969       3
Co     0.01625532   -3.58550153    0.02474182       4
Co    -3.59074706   -0.03229909    0.01369301       5
Cr     3.56923926   -0.04743698   -0.00432154       6
Ni    -1.76184612   -0.00657766   -1.70128631       7
Co     1.71635523   -0.06570639   -1.71656805       8
Co    -1.79185084    1.73496704    0.04259685       9
Ni     1.73386829    1.68536076    0.03797523      10
Cr    -0.01979695   -1.72530383   -1.73299682      11
Co    -0.03114602    1.76129340    1.75174555      12
Co    -0.04961548   -1.75119837    1.68551017      13
Cr    -1.64189267   -1.72990869   -0.00976630      14
Co     1.68833719   -1.79443037    0.00045804      15
Co    -1.77290480   -0.02245528    1.70487778      16
Ni     1.73229425   -0.01636284    1.77892839      17
Ni    -0.02276734    1.71529619   -1.70313725      18
