          18
Lattice="  24.8920   0.0000   0.0000   0.0000  24.8920   0.0000   0.0000   0.0000  24.8920 " ConfE="      -5924.4891" DelE="          0.0000"
Ni     0.02301117   -3.52178893    0.01272771       1
Ni    -3.45079614    0.00791918   -0.03243617       2
Ni     0.03786750   -0.00103148   -3.57462444       3
Co     0.02224151    0.04717852    3.55548510       4
Co     3.57780989    0.08551605   -0.00560668       5
Co     0.08830121    3.58632069   -0.01256445       6
Ni     0.02893232   -1.76750853   -1.78368043       7
Ni    -1.72708824   -0.00397529   -1.80000302       8
Ni    -0.02649004   -1.74777355    1.75354729       9
Ni     1.79783841    0.01025360   -1.78876024      10
Ni     0.02644914    1.78264489   -1.76873379      11
Co    -1.76542433    0.01085396    1.78395904      12
Ni     1.80727548   -1.73415338   -0.02952828      13
Ni     1.78727675    0.04473433    1.75739971      14
Co    -1.73820725    1.85611563    0.03851777      15
Co     0.03481630    1.82567502    1.78764818      16
Cr     1.77450016    1.82753465    0.01847250      17
Ni     0.00000000    0.00000000    0.00000000      18
          18
Lattice="  24.8920   0.0000   0.0000   0.0000  24.8920   0.0000   0.0000   0.0000  24.8920 " ConfE="      -5923.7827" DelE="          0.7063"
Ni     0.00591892   -3.46476149    0.00901582       1
Ni    -3.36798313   -0.00306216   -0.03999178       2
Ni     0.05172782    0.00657459   -3.62755152       3
Co     0.03843476    0.06092871    3.60891539       4
Co     3.57662032    0.07691413    0.00154730       5
Co     0.08182954    3.59755676   -0.01834924       6
Ni     0.08983368   -1.80449802   -1.93921680       7
Ni    -1.76316012    0.03672686   -1.97044596       8
Ni     0.01945465   -1.77650730    1.89989696       9
Ni     1.77228834    0.00791014   -1.77847059      10
Ni     0.01511601    1.75051375   -1.76265605      11
Co    -1.78318866    0.07686186    1.93656982      12
Ni     1.73829612   -1.70121267   -0.02288153      13
Ni     1.74909208    0.02669766    1.75510681      14
Co    -1.69303361    1.80846638    0.04167408      15
Co     0.03884121    1.80298230    1.77123765      16
Cr     1.69018566    1.75406868    0.03212387      17
Ni    -0.69827181   -0.68163715   -0.01972781      18
          18
Lattice="  24.8920   0.0000   0.0000   0.0000  24.8920   0.0000   0.0000   0.0000  24.8920 " ConfE="      -5924.5662" DelE="         -0.0772"
Ni     0.05490864   -3.55170793    0.01130809       1
Ni    -3.49860754    0.04128269   -0.03897463       2
Ni     0.03857949    0.00626046   -3.57893642       3
Co     0.03287601    0.04348648    3.57499658       4
Co     3.59965980    0.08186274   -0.00466170       5
Co     0.08621223    3.61207260   -0.01438677       6
Ni     0.05336792   -1.74619167   -1.78598457       7
Ni    -1.70889114    0.01998792   -1.78648336       8
Ni     0.00962409   -1.72877651    1.75859707       9
Ni     1.78229716    0.02155406   -1.75424953      10
Ni     0.03325733    1.75924895   -1.71833662      11
Co    -1.73679476    0.04116744    1.77728527      12
Ni     1.77647895   -1.70848459   -0.02919769      13
Ni     1.76010395    0.04246600    1.72233380      14
Co    -1.70438117    1.80088239    0.04431729      15
Co     0.05063817    1.80764823    1.75093284      16
Cr     1.75652326    1.80627887    0.03589314      17
Ni    -1.69935833   -1.71994139   -0.00581625      18
