          18
Lattice="  24.8920   0.0000   0.0000   0.0000  24.8920   0.0000   0.0000   0.0000  24.8920 " ConfE="      -5946.9017" DelE="          0.0000"
Co    -0.07963932    0.03442000    3.44665777       1
Co     0.02057229    3.49817982   -0.04281238       2
Co    -0.00682797   -0.03384199   -3.56272636       3
Ni     0.03003457   -3.60656014   -0.03856110       4
Cr     3.57212139   -0.03903876    0.00279963       5
Cr    -3.55130743   -0.02442088   -0.02328791       6
Co     1.78456488    0.03672007    1.67922776       7
Co    -1.84408216   -0.02765114    1.74499067       8
Cr     1.68881445    1.68407907    0.00569197       9
Ni    -1.72687784    1.75594089    0.03587070      10
Ni    -0.00122575   -1.83892256    1.75085356      11
Cr    -0.01820543    1.73289893   -1.82015258      12
Cr    -0.02480455   -1.78856651   -1.80591220      13
Ni     1.77855523   -1.82753874   -0.01480550      14
Ni    -1.77444998   -1.83055924   -0.01567072      15
Ni     1.78090880   -0.05141663   -1.78493245      16
Cr    -1.75327702   -0.03145221   -1.76418047      17
Co     0.00000000    0.00000000    0.00000000      18
          18
Lattice="  24.8920   0.0000   0.0000   0.0000  24.8920   0.0000   0.0000   0.0000  24.8920 " ConfE="      -5946.2902" DelE="          0.6114"
Co    -0.07002492    0.03891843    3.39832988       1
Co    -0.00170257    3.43711176   -0.02972804       2
Co    -0.01454587   -0.02333241   -3.55147825       3
Ni     0.03403004   -3.59511993   -0.03888765       4
Cr     3.64945124   -0.06759936   -0.00563470       5
Cr    -3.66261634   -0.04098628   -0.04857458       6
Co     1.96873973   -0.06884215    1.73288774       7
Co    -1.98402229   -0.05215035    1.73154916       8
Cr     1.83031930    1.71095905   -0.02998339       9
Ni    -1.91119844    1.78100937   -0.02996362      10
Ni    -0.00026358   -1.78040701    1.71644032      11
Cr    -0.01860811    1.62767587   -1.66234123      12
Cr    -0.04460831   -1.68853650   -1.74229899      13
Ni     1.78217845   -1.80594757   -0.01001387      14
Ni    -1.77956851   -1.79291993   -0.01334708      15
Ni     1.78138889   -0.04519648   -1.74069015      16
Cr    -1.76767639   -0.01592449   -1.71991805      17
Co     0.04626220    0.87808001    0.88640001      18
          18
Lattice="  24.8920   0.0000   0.0000   0.0000  24.8920   0.0000   0.0000   0.0000  24.8920 " ConfE="      -5946.6254" DelE="          0.2763"
Co    -0.06202974   -0.01242915    3.50863799       1
Co     0.00648768    3.53616934   -0.05820489       2
Co    -0.00984271   -0.02715326   -3.57829838       3
Ni     0.02809485   -3.60908100   -0.03935929       4
Cr     3.62573285   -0.06646046   -0.00845646       5
Cr    -3.60155703   -0.03821478   -0.03832406       6
Co     1.79637488   -0.01420377    1.67196552       7
Co    -1.84371296   -0.04482997    1.73253133       8
Cr     1.70105921    1.65454696    0.01168067       9
Ni    -1.76106533    1.72103572   -0.01761735      10
Ni    -0.00282621   -1.80057404    1.73398491      11
Cr    -0.00924149    1.68480647   -1.74538836      12
Cr    -0.03619528   -1.74893289   -1.79495316      13
Ni     1.75798425   -1.81210814   -0.02022122      14
Ni    -1.75792107   -1.79665894   -0.02418161      15
Ni     1.75368549   -0.04798644   -1.75021038      16
Cr    -1.73929142   -0.03876992   -1.76295067      17
Co     0.03974000    1.65944370    1.62995343      18
