          18
Lattice="  24.8920   0.0000   0.0000   0.0000  24.8920   0.0000   0.0000   0.0000  24.8920 " ConfE="      -5924.9006" DelE="          0.0000"
Co    -3.57662750    0.06421100   -0.02310289       1
Cr    -0.04117786    0.02494634   -3.48569224       2
Ni    -0.02530024    3.55137079    0.08028735       3
Cr    -0.03423563   -3.52055692    0.01830087       4
Cr    -0.00185078   -0.03240796    3.62082640       5
Co     3.53645627    0.04575636    0.04800361       6
Ni    -1.78542595    1.76527551    0.03667888       7
Ni    -0.03079679    1.74065875   -1.71212261       8
Ni    -1.77006644   -1.73355625   -0.01337067       9
Cr    -0.07676691   -1.65404556   -1.79200291      10
Ni    -1.77712490    0.01552733    1.82484491      11
Ni     1.78523607    0.01852470   -1.70093540      12
Ni    -0.03034095   -1.76278966    1.81414626      13
Co     0.01316118    1.77075073    1.85870814      14
Co     1.75291099    1.77277438    0.08621463      15
Co     1.69161712   -1.74482145    0.04010669      16
Co     1.72672700    0.02436396    1.83903331      17
Cr     0.00000000    0.00000000    0.00000000      18
          18
Lattice="  24.8920   0.0000   0.0000   0.0000  24.8920   0.0000   0.0000   0.0000  24.8920 " ConfE="      -5924.0688" DelE="          0.8318"
Co    -3.49294866    0.06069134   -0.03129712       1
Cr    -0.04245415    0.03608097   -3.49396575       2
Ni    -0.00083095    3.63925590    0.09631628       3
Cr    -0.00334594   -3.64318044    0.08354193       4
Cr    -0.00220200   -0.03595672    3.58459798       5
Co     3.52763584    0.04879659    0.03844428       6
Ni    -1.78428209    1.92469072    0.09073214       7
Ni     0.01226169    1.89914717   -1.72344133       8
Ni    -1.79644289   -1.92356972    0.03588351       9
Cr    -0.04601034   -1.81815684   -1.80542340      10
Ni    -1.72623941    0.01300879    1.73456277      11
Ni     1.65822844    0.01971141   -1.64435780      12
Ni    -0.04202611   -1.76771593    1.78503327      13
Co     0.02636403    1.78145253    1.82900944      14
Co     1.73070489    1.77832945    0.08466269      15
Co     1.62761964   -1.74482300    0.03514241      16
Co     1.69076618    0.03326142    1.81606369      17
Cr    -0.87556303   -0.00136347   -0.81248920      18
          18
Lattice="  24.8920   0.0000   0.0000   0.0000  24.8920   0.0000   0.0000   0.0000  24.8920 " ConfE="      -5924.8733" DelE="          0.0273"
Co    -3.60979529    0.04977606    0.00977057       1
Cr     0.01696458    0.02939655   -3.54657084       2
Ni    -0.01283374    3.57911391    0.09440954       3
Cr    -0.01668392   -3.56271307    0.04104738       4
Cr     0.00184370   -0.03636282    3.61701798       5
Co     3.56105055    0.04514150    0.04937502       6
Ni    -1.75941468    1.76633012    0.06235776       7
Ni     0.00051932    1.75190100   -1.67572923       8
Ni    -1.73476001   -1.74052184    0.00306793       9
Cr    -0.04268984   -1.69515120   -1.76923176      10
Ni    -1.73522305    0.01528916    1.78184596      11
Ni     1.71096972    0.00851611   -1.64097422      12
Ni    -0.01946911   -1.75232499    1.81350455      13
Co     0.04138271    1.77548806    1.86514084      14
Co     1.77440412    1.77431278    0.09692373      15
Co     1.66251543   -1.74384052    0.05568479      16
Co     1.72536692    0.04094504    1.84541892      17
Cr    -1.73087675    0.03894863   -1.75538663      18
