          19
Lattice="  24.8920   0.0000   0.0000   0.0000  24.8920   0.0000   0.0000   0.0000  24.8920 " ConfE="      -5941.8763" DelE="          0.0000"
Cr     0.04661695    0.03241089   -3.45620464       1
Cr     0.69447677    2.48066663   -1.83528921       2
Co    -3.59035170   -0.06199668   -0.01681398       3
Cr     0.05056485    3.51450282    0.12707383       4
Cr    -0.06203207   -3.68096997    0.01997269       5
Cr     3.49109603   -0.04321174   -0.00550551       6
Ni    -0.05140076   -0.07982983    3.60499130       7
Ni    -1.74508255   -0.00503946   -1.75711174       8
Ni    -1.73785704    1.73926001    0.01532422       9
Ni    -0.01083428   -1.85260225   -1.74820976      10
Co     1.72798403    0.01030894   -1.76385073      11
Ni    -1.77853515   -1.82223234    0.00709579      12
Cr    -1.80392300   -0.08504772    1.75751758      13
Co    -0.01471535    1.70797355    1.85301433      14
Ni     1.73006531   -1.83987790    0.02496648      15
Ni     1.76242438    1.70076322    0.13087736      16
Co    -0.08491493   -1.82424462    1.77958587      17
Ni     1.73697825   -0.09506988    1.83200091      18
Co     0.00000000    0.00000000    0.00000000      19
          19
Lattice="  24.8920   0.0000   0.0000   0.0000  24.8920   0.0000   0.0000   0.0000  24.8920 " ConfE="      -5941.2548" DelE="          0.6215"
Cr     0.06164312    0.13678390   -3.38712367       1
Cr     0.94426993    2.65292954   -1.83336445       2
Co    -3.68205573   -0.08194836    0.00705039       3
Cr     0.02208729    3.40186391    0.13314374       4
Cr    -0.05647732   -3.66524746   -0.00399487       5
Cr     3.60499032   -0.06996788    0.00843355       6
Ni    -0.04746468   -0.06622718    3.59046016       7
Ni    -1.93346369   -0.07893158   -1.77427355       8
Ni    -1.93664891    1.73011545    0.06915879       9
Ni    -0.00640108   -1.75134891   -1.72490452      10
Co     1.94284633    0.00060788   -1.80556368      11
Ni    -1.78333611   -1.78983750    0.00586579      12
Cr    -1.83289075   -0.10335823    1.75296918      13
Co    -0.03748581    1.65905239    1.72901940      14
Ni     1.72670176   -1.78337449    0.00770260      15
Ni     1.92854972    1.70457121    0.17020978      16
Co    -0.09602240   -1.77244805    1.73709284      17
Ni     1.73792029   -0.08749002    1.79416829      18
Co     0.01675344    0.78041992   -0.78878679      19
          19
Lattice="  24.8920   0.0000   0.0000   0.0000  24.8920   0.0000   0.0000   0.0000  24.8920 " ConfE="      -5943.0851" DelE="         -1.2088"
Cr     0.01790513   -0.02724406   -3.52547484       1
Cr     1.75052119    3.52929206   -1.71444931       2
Co    -3.62346752   -0.08337187   -0.00367507       3
Cr     0.01238806    3.49674358    0.01718579       4
Cr    -0.06662727   -3.70790777    0.01998373       5
Cr     3.50928446   -0.04077929   -0.00440163       6
Ni    -0.05204518   -0.07514291    3.60905678       7
Ni    -1.77321049   -0.06162257   -1.73071130       8
Ni    -1.76824822    1.67832539    0.04434729       9
Ni    -0.01960965   -1.82701030   -1.72862491      10
Co     1.74177788   -0.04599443   -1.74736218      11
Ni    -1.77581164   -1.82410135    0.01696522      12
Cr    -1.81947472   -0.12608158    1.78058412      13
Co    -0.03165541    1.67653714    1.79642354      14
Ni     1.70745380   -1.83477125    0.02629858      15
Ni     1.69641611    1.67328664    0.04241555      16
Co    -0.10585070   -1.79537958    1.76007082      17
Ni     1.70626612   -0.08790616    1.78849738      18
Co    -0.02324598    1.72364115   -1.76561268      19
