          18
Lattice="  24.8920   0.0000   0.0000   0.0000  24.8920   0.0000   0.0000   0.0000  24.8920 " ConfE="      -5922.4656" DelE="          0.0000"
Ni     3.41639525    0.00773231    0.13415784       1
Ni    -0.03678422   -0.03163189   -3.29406321       2
Co    -0.08665077   -3.54265643    0.21797049       3
Cr    -0.07638634    3.53564554    0.23105508       4
Cr    -3.65319863    0.02316434    0.16137919       5
Cr    -0.11027074    0.02734846    3.77293495       6
Ni     1.67402515   -1.78281886    0.19302617       7
Ni     1.68342831   -0.01753168    1.97702916       8
Cr     0.05499475   -1.90659914   -1.68386905       9
Cr     0.05174488    1.82151186   -1.59560200      10
Co     1.68734636    1.74988347    0.14310346      11
Ni    -1.81257595    1.74380237    0.15225670      12
Ni    -1.82161041   -0.01634965    1.92596394      13
Ni    -1.80976845   -1.78085466    0.16992909      14
Cr    -1.85623573   -0.06225112   -1.58569259      15
Cr    -0.06918706   -1.79488259    2.03696921      16
Co    -0.06471421    1.74608643    1.93111942      17
Cr     0.00000000    0.00000000    0.00000000      18
          18
Lattice="  24.8920   0.0000   0.0000   0.0000  24.8920   0.0000   0.0000   0.0000  24.8920 " ConfE="      -5922.1084" DelE="          0.3572"
Ni     3.37009237   -0.00668955    0.14089474       1
Ni    -0.02995958   -0.03559798   -3.26653104       2
Co    -0.09503800   -3.59954564    0.22049631       3
Cr    -0.10941296    3.61043526    0.26720764       4
Cr    -3.61905722    0.02719537    0.14050614       5
Cr    -0.10214531    0.01689695    3.74064236       6
Ni     1.71787742   -1.91710883    0.24259945       7
Ni     1.65840915   -0.01840925    1.92999253       8
Cr     0.04502662   -2.03781358   -1.70549578       9
Cr    -0.00426146    1.95953123   -1.62921246      10
Co     1.69017464    1.84994845    0.21867861      11
Ni    -1.73872855    1.71649721    0.13483767      12
Ni    -1.78881771   -0.01799446    1.89456413      13
Ni    -1.74856558   -1.75614505    0.13881325      14
Cr    -1.81922923   -0.05117398   -1.58195807      15
Cr    -0.04515787   -1.75343817    1.94991926      16
Co    -0.06170514    1.75436758    1.93615646      17
Cr     0.76822754   -0.02955804   -0.70228563      18
          18
Lattice="  24.8920   0.0000   0.0000   0.0000  24.8920   0.0000   0.0000   0.0000  24.8920 " ConfE="      -5922.7295" DelE="         -0.2639"
Ni     3.43963853   -0.00444223    0.16629430       1
Ni    -0.08768184   -0.02334407   -3.39824420       2
Co    -0.09621033   -3.57824256    0.22691965       3
Cr    -0.08700988    3.55976332    0.25725052       4
Cr    -3.63866154    0.01699130    0.16255169       5
Cr    -0.10964299    0.02881464    3.76995356       6
Ni     1.62097350   -1.76841867    0.21091401       7
Ni     1.65404959   -0.01837040    1.95362823       8
Cr    -0.01488436   -1.91609199   -1.67331017       9
Cr    -0.04750491    1.82220892   -1.55418857      10
Co     1.65005190    1.73910848    0.16594771      11
Ni    -1.78533074    1.71763042    0.17652358      12
Ni    -1.81006589   -0.01844092    1.93719663      13
Ni    -1.78566149   -1.76862438    0.19092985      14
Cr    -1.68322205   -0.06194300   -1.53484034      15
Cr    -0.07175322   -1.79227720    2.05307658      16
Co    -0.06791621    1.75483372    1.95131957      17
Cr     1.52656311   -0.01978488   -1.55468007      18
