          18
Lattice="  24.8920   0.0000   0.0000   0.0000  24.8920   0.0000   0.0000   0.0000  24.8920 " ConfE="      -5923.0975" DelE="          0.0000"
Ni    -3.49064392   -0.03411047    0.00040034       1
Co    -0.04677189    3.43370216   -0.01858094       2
Cr     3.58060998   -0.10204248   -0.04670563       3
Ni     0.02548170   -3.59938382   -0.00455857       4
Co     0.06381607   -0.06566509   -3.55506216       5
Co     0.03461701   -0.02140752    3.54790528       6
Cr    -1.73932056    0.04833867   -1.73254948       7
Cr    -1.68504451    0.02291824    1.70619516       8
Cr     0.05639514    1.65844288   -1.76309627       9
Cr    -0.05503144    1.74874602    1.72914286      10
Co    -1.71434044   -1.82102256    0.00228991      11
Ni     1.86839889    1.72677917    0.01318271      12
Cr     1.80151608   -1.81766060   -0.00949263      13
Co     0.03834388   -1.78244780   -1.74875294      14
Cr    -0.00584947   -1.79931791    1.79088443      15
Co     1.80904197   -0.05615549   -1.75158630      16
Co     1.77324104   -0.04575239    1.73287928      17
Co     0.00000000    0.00000000    0.00000000      18
          18
Lattice="  24.8920   0.0000   0.0000   0.0000  24.8920   0.0000   0.0000   0.0000  24.8920 " ConfE="      -5922.4373" DelE="          0.6602"
Ni    -3.46087295   -0.04941817    0.00976272       1
Co    -0.07852102    3.38198930   -0.02587685       2
Cr     3.58310260   -0.08804788   -0.06041434       3
Ni     0.01911093   -3.61414480   -0.00721218       4
Co     0.06817673   -0.07988218   -3.60169246       5
Co     0.03624859   -0.02378157    3.60000384       6
Cr    -1.78465732   -0.01750296   -1.89472480       7
Cr    -1.72534598   -0.05318984    1.92653105       8
Cr     0.08063705    1.66239563   -1.92136860       9
Cr    -0.03187687    1.78453652    1.88512560      10
Co    -1.67047843   -1.76511935    0.01506316      11
Ni     1.78947019    1.69951182    0.00846274      12
Cr     1.72194154   -1.74042420   -0.02149901      13
Co     0.02753316   -1.74144044   -1.72421032      14
Cr    -0.00202124   -1.72619307    1.72251779      15
Co     1.77941317   -0.04866171   -1.74635845      16
Co     1.71281143   -0.04262543    1.70655871      17
Co    -0.72267251    0.70840609    0.01316848      18
          18
Lattice="  24.8920   0.0000   0.0000   0.0000  24.8920   0.0000   0.0000   0.0000  24.8920 " ConfE="      -5923.1564" DelE="         -0.0589"
Ni    -3.53156068   -0.06191902   -0.00808444       1
Co     0.00256605    3.49478424   -0.01852619       2
Cr     3.61322924   -0.11320744   -0.06466367       3
Ni     0.02975097   -3.61357242    0.00234499       4
Co     0.07873695   -0.07846207   -3.57484148       5
Co     0.03925305   -0.03108293    3.56897839       6
Cr    -1.67361222   -0.06084327   -1.73789708       7
Cr    -1.66107569   -0.02614339    1.71076413       8
Cr     0.07614491    1.60779209   -1.75767374       9
Cr    -0.00353186    1.67983936    1.72681865      10
Co    -1.67889072   -1.77206476    0.01723720      11
Ni     1.82593995    1.70600850    0.00488754      12
Cr     1.80499075   -1.81859011   -0.01179895      13
Co     0.04793665   -1.75579208   -1.70452232      14
Cr     0.02557315   -1.74718051    1.74920145      15
Co     1.77941738   -0.06522387   -1.71624963      16
Co     1.73107254   -0.07162045    1.67758564      17
Co    -1.69502286    1.67750136   -0.05297969      18
