          18
Lattice="  24.8920   0.0000   0.0000   0.0000  24.8920   0.0000   0.0000   0.0000  24.8920 " ConfE="      -5949.9259" DelE="          0.0000"
Ni     0.04685773   -3.37695920    0.01533851       1
Ni     0.05326871    0.09523019    3.59549871       2
Ni     0.03170150    3.60169370    0.03414790       3
Cr     0.02709423    0.02736763   -3.61141215       4
Cr    -3.53241895    0.06056033    0.01783600       5
Co     3.61108908    0.08979394    0.01174340       6
Ni    -1.69823075    0.06397387   -1.78157107       7
Ni     1.77482096    0.06354276   -1.77244744       8
Cr    -1.73915899   -1.61142256    0.05352397       9
Co     1.82354885   -1.63464192    0.05196126      10
Ni    -1.74360470    0.10549429    1.80796798      11
Ni    -1.74527286    1.83421535    0.01888363      12
Ni     0.03456300    1.86142069   -1.78883649      13
Co     0.02951523   -1.68310832    1.84105533      14
Cr     1.83234413   -0.00810198    1.76023370      15
Cr     1.75999773    1.71829200    0.05536685      16
Co     0.07301390    1.82631855    1.78307905      17
Co     0.00000000    0.00000000    0.00000000      18
          18
Lattice="  24.8920   0.0000   0.0000   0.0000  24.8920   0.0000   0.0000   0.0000  24.8920 " ConfE="      -5945.4130" DelE="          4.5129"
Ni     0.04663881   -3.39842707    0.00111976       1
Ni     0.07744284    0.08707493    3.52279756       2
Ni    -0.02242283    3.74986977    0.08413939       3
Cr     0.08077042   -0.10745695   -3.70047702       4
Cr    -3.54705661    0.05960778   -0.00423980       5
Co     3.68424330    0.01967706   -0.00169375       6
Ni    -1.58201216    0.08868923   -1.74432773       7
Ni     1.76461164    0.02410612   -1.83740645       8
Cr    -1.71179071   -1.59927780    0.05346054       9
Co     1.81486608   -1.68495653    0.00134662      10
Ni    -1.74558239    0.09581508    1.78598038      11
Ni    -1.78120982    1.85528314    0.01706757      12
Ni    -0.08889941    1.92499941   -2.51027529      13
Co    -0.06374306   -1.99107465    1.97431609      14
Cr     0.61029292   -0.14546191    0.99643390      15
Cr     2.24520972    1.38330597    1.00943117      16
Co    -0.05676760    1.95899245    1.86353998      17
Co     0.62583741    1.53117889   -0.41269161      18
          18
Lattice="  24.8920   0.0000   0.0000   0.0000  24.8920   0.0000   0.0000   0.0000  24.8920 " ConfE="      -5949.9495" DelE="         -0.0236"
Ni     0.05002476   -3.39211968    0.02058031       1
Ni     0.06761828    0.10277409    3.58404085       2
Ni     0.03042000    3.60934069    0.03786334       3
Cr     0.03302753    0.03826197   -3.63934827       4
Cr    -3.56360045    0.05624397    0.01563047       5
Co     3.59931156    0.08556673    0.01442475       6
Ni    -1.65251786    0.04543993   -1.74858297       7
Ni     1.77580267    0.07540663   -1.77650779       8
Cr    -1.73780671   -1.62565030    0.05400723       9
Co     1.78203876   -1.62163920    0.02429885      10
Ni    -1.72949670    0.10777045    1.79675901      11
Ni    -1.73297274    1.82429577    0.01897075      12
Ni     0.04879786    1.86017374   -1.78038189      13
Co     0.03874492   -1.67139311    1.82772923      14
Cr     0.13392262    0.07385478    0.09649105      15
Cr     1.86750269    0.04604190    1.76680913      16
Co     0.07067827    1.84330145    1.79680973      17
Co     1.84312786    1.83535768    0.03719203      18
