          18
Lattice="  24.8920   0.0000   0.0000   0.0000  24.8920   0.0000   0.0000   0.0000  24.8920 " ConfE="      -5940.5715" DelE="          0.0000"
Cr     3.47307594    0.06033887   -0.04193671       1
Cr    -0.07167011    0.02575691   -3.58199732       2
Cr    -0.04016615    0.08938188    3.56644410       3
Cr    -3.60379466    0.05993829   -0.02651060       4
Co    -0.04263545   -3.44690607    0.03000396       5
Co    -0.01321403    3.59441856   -0.01117900       6
Ni    -0.00054125   -1.66365482   -1.79600366       7
Ni    -0.00073765    1.75996837   -1.81083312       8
Ni     1.75030700    0.07244268    1.78690223       9
Co     1.74874959   -1.65573976   -0.02767731      10
Co     1.74560652    1.75425131   -0.06161337      11
Ni    -1.81761182   -1.70345314   -0.01828242      12
Ni    -1.80675612    1.81688126   -0.03207694      13
Co    -1.86437466    0.05847366   -1.79054289      14
Cr    -0.05535194   -1.63200765    1.74915059      15
Co    -0.04448951    1.81148316    1.76251201      16
Co    -1.83427811    0.07312753    1.77235159      17
Cr     0.00000000    0.00000000    0.00000000      18
          18
Lattice="  24.8920   0.0000   0.0000   0.0000  24.8920   0.0000   0.0000   0.0000  24.8920 " ConfE="      -5939.7340" DelE="          0.8374"
Cr     3.51078577    0.06361668   -0.01852534       1
Cr    -0.07099291    0.03140303   -3.56990658       2
Cr    -0.02012355    0.07294120    3.55451189       3
Cr    -3.56653263    0.06362845   -0.04384982       4
Co    -0.05567357   -3.51913359    0.04907725       5
Co    -0.03811585    3.66556203   -0.00871834       6
Ni    -0.04968378   -1.77315947   -1.80464443       7
Ni    -0.04131262    1.90125147   -1.83872356       8
Ni     1.72887191    0.06354861    1.70115023       9
Co     1.74914910   -1.80272196    0.02352460      10
Co     1.73594992    1.95348790    0.06053543      11
Ni    -1.75634581   -1.67611606   -0.02383550      12
Ni    -1.75490980    1.79309906   -0.05321455      13
Co    -1.74360710    0.05577232   -1.79646492      14
Cr    -0.05122878   -1.55837868    1.68030241      15
Co    -0.04485452    1.78039294    1.73568164      16
Co    -1.79075778    0.06566274    1.74596265      17
Cr     1.02864372    0.07935675   -0.92441862      18
          18
Lattice="  24.8920   0.0000   0.0000   0.0000  24.8920   0.0000   0.0000   0.0000  24.8920 " ConfE="      -5940.3723" DelE="          0.1992"
Cr     3.54692867    0.05375212    0.00187045       1
Cr    -0.08540799    0.03887893   -3.60619117       2
Cr    -0.03882547    0.07826757    3.57411788       3
Cr    -3.60217740    0.06324211   -0.03145944       4
Co    -0.04892133   -3.48234129    0.04231897       5
Co    -0.02517242    3.63066013   -0.01188475       6
Ni    -0.02370890   -1.65236307   -1.75574970       7
Ni    -0.03256725    1.79013774   -1.79590005       8
Ni     1.70293353    0.06331917    1.73388637       9
Co     1.72481545   -1.66552789   -0.00464210      10
Co     1.71441560    1.77818147   -0.03381160      11
Ni    -1.78384211   -1.67583641   -0.00641968      12
Ni    -1.80161395    1.80564094   -0.03128019      13
Co    -1.82603148    0.06302062   -1.79104944      14
Cr    -0.07413210   -1.60487859    1.75568409      15
Co    -0.05960373    1.79267586    1.74698902      16
Co    -1.80429915    0.06861563    1.75560425      17
Cr     1.74354798    0.10250296   -1.73974261      18
