          18
Lattice="  24.8920   0.0000   0.0000   0.0000  24.8920   0.0000   0.0000   0.0000  24.8920 " ConfE="      -5940.9827" DelE="          0.0000"
Cr     0.08850916    0.00519234   -3.57157982       1
Cr    -0.02822568    3.50573258   -0.01770148       2
Ni    -0.00902646   -0.00433667    3.59809471       3
Cr     3.59331944    0.11397570    0.03128255       4
Co     0.02629554   -3.58199731    0.02333181       5
Co    -3.44064240   -0.04321115   -0.05965443       6
Ni     1.76334322   -0.00515470   -1.74600259       7
Co     1.71595324    1.78448742   -0.04220385       8
Ni     1.76619824    0.00989788    1.79919890       9
Ni    -1.77258795    0.00146919    1.81585556      10
Cr    -1.60713336    0.25749573   -1.80108235      11
Co    -1.71686190    1.80078253    0.00160378      12
Cr    -0.02974161    1.81414928    1.84288383      13
Co    -0.02089959   -1.81714858   -1.80000775      14
Co    -0.00248091   -1.80356443    1.81654065      15
Cr     1.72559780   -1.77655922    0.03227686      16
Cr    -1.68267457   -1.81213279    0.02283286      17
Cr     0.00000000    0.00000000    0.00000000      18
          18
Lattice="  24.8920   0.0000   0.0000   0.0000  24.8920   0.0000   0.0000   0.0000  24.8920 " ConfE="      -5940.3004" DelE="          0.6823"
Cr     0.06677317   -0.01855889   -3.53902424       1
Cr    -0.04859922    3.52800107    0.04377751       2
Ni    -0.00856146    0.00896078    3.59506043       3
Cr     3.67247789    0.08237971    0.06002257       4
Co     0.01644331   -3.58948845    0.00847727       5
Co    -3.49915487   -0.04549846   -0.04193392       6
Ni     1.93096371   -0.04135249   -1.76611203       7
Co     1.88753347    1.82396043    0.00975734       8
Ni     1.73180909    0.04377598    1.72565240       9
Ni    -1.75366549    0.03120665    1.77536077      10
Cr    -1.83285524    0.11055183   -1.78821246      11
Co    -1.85119385    1.82453910    0.05071354      12
Cr    -0.02489662    1.81747622    1.81421534      13
Co     0.01149066   -1.73672749   -1.76831359      14
Co    -0.00377350   -1.74988405    1.76492188      15
Cr     1.61578593   -1.67714350    0.02714210      16
Cr    -1.55032823   -1.66764607    0.00445294      17
Cr     0.01220175    0.77448343   -0.72163495      18
          18
Lattice="  24.8920   0.0000   0.0000   0.0000  24.8920   0.0000   0.0000   0.0000  24.8920 " ConfE="      -5940.8217" DelE="          0.1610"
Cr     0.07749154    0.00018826   -3.59882757       1
Cr    -0.02325729    3.57688316   -0.00570491       2
Ni    -0.00954649    0.00761899    3.59773645       3
Cr     3.60014893    0.09023645    0.04549526       4
Co     0.02481646   -3.62340781    0.01882848       5
Co    -3.48398932   -0.04632245   -0.04376402       6
Ni     1.75635667   -0.03927747   -1.70181123       7
Co     1.72781236    1.75510392   -0.00346933       8
Ni     1.72525653    0.01064036    1.76496345       9
Ni    -1.74375854    0.00629379    1.78421562      10
Cr    -1.68180168    0.01380970   -1.71921824      11
Co    -1.69803928    1.75806563   -0.01336968      12
Cr    -0.03698733    1.81572712    1.75974229      13
Co     0.00110511   -1.79936174   -1.77965441      14
Co    -0.00095512   -1.79374435    1.79314123      15
Cr     1.63860978   -1.74131941    0.05202392      16
Cr    -1.54910416   -1.72416299    0.02320071      17
Cr     0.02825518    1.77455545   -1.77631699      18
