          18
Lattice="  24.8920   0.0000   0.0000   0.0000  24.8920   0.0000   0.0000   0.0000  24.8920 " ConfE="      -5934.7364" DelE="          0.0000"
Ni     0.00734172   -0.04494981    3.53813226       1
Cr     0.06283750    3.39949114    0.03019346       2
Co     0.01205827   -0.09729358   -3.64993618       3
Co     0.02805812   -3.61154968   -0.00419378       4
Ni    -3.53331065   -0.03394095   -0.01198529       5
Ni     3.51631763   -0.05161763   -0.05776587       6
Co    -1.73827042    0.05418413    1.72865312       7
Co     1.77804855   -0.01573212    1.72938330       8
Cr    -1.66685919    1.68080012    0.07805333       9
Co     1.70719296    1.76137265    0.02081628      10
Ni    -0.02149223   -1.79979776    1.74710091      11
Ni     0.01110587    1.70506447   -1.85540164      12
Ni     0.01869397   -1.83247603   -1.81868122      13
Co    -1.76137485   -1.79840602   -0.04582447      14
Cr     1.72903683   -1.84430322    0.04107773      15
Cr    -1.74917816   -0.07739563   -1.77496824      16
Ni     1.77773668   -0.08393495   -1.81139421      17
Co     0.00000000    0.00000000    0.00000000      18
          18
Lattice="  24.8920   0.0000   0.0000   0.0000  24.8920   0.0000   0.0000   0.0000  24.8920 " ConfE="      -5934.1287" DelE="          0.6078"
Ni    -0.01201465   -0.02332463    3.50221586       1
Cr     0.07484185    3.42814349    0.02714457       2
Co     0.01034407   -0.08899788   -3.61839870       3
Co     0.02579577   -3.60513724    0.00420351       4
Ni    -3.60075251   -0.05418023   -0.01703424       5
Ni     3.57440829   -0.05987133   -0.06911819       6
Co    -1.90847526   -0.01877434    1.76053749       7
Co     1.85842688   -0.04405737    1.71581239       8
Cr    -1.92610729    1.77374342   -0.07965897       9
Co     1.92259066    1.80224738   -0.02493709      10
Ni    -0.03659475   -1.70565652    1.68919377      11
Ni     0.02453738    1.68968584   -1.75244174      12
Ni     0.02685750   -1.80477281   -1.77537887      13
Co    -1.76778655   -1.75712465   -0.05404265      14
Cr     1.72440180   -1.79565972    0.04879924      15
Cr    -1.72003032   -0.10038138   -1.66898901      16
Ni     1.77059962   -0.06615675   -1.76129923      17
Co    -0.06886774    0.97395511    0.80798860      18
          18
Lattice="  24.8920   0.0000   0.0000   0.0000  24.8920   0.0000   0.0000   0.0000  24.8920 " ConfE="      -5934.7453" DelE="         -0.0089"
Ni     0.00474514   -0.05626226    3.56582326       1
Cr     0.03107181    3.49548774   -0.03565448       2
Co     0.01279016   -0.10083448   -3.64070629       3
Co     0.03058926   -3.62552332   -0.00358434       4
Ni    -3.57327838   -0.03785793   -0.01502440       5
Ni     3.54858475   -0.07001401   -0.06182964       6
Co    -1.75467040    0.02016223    1.68455043       7
Co     1.78036960   -0.04604336    1.68887098       8
Cr    -1.68445038    1.64668660    0.02669593       9
Co     1.73780276    1.72091077   -0.00940945      10
Ni    -0.01421407   -1.74315090    1.69896949      11
Ni     0.01306402    1.66749041   -1.78146774      12
Ni     0.02877153   -1.82637820   -1.79709596      13
Co    -1.74286535   -1.75905607   -0.07074761      14
Cr     1.73666469   -1.85528789    0.03313649      15
Cr    -1.73244007   -0.10296508   -1.72213831      16
Ni     1.76638851   -0.10013541   -1.77745715      17
Co     0.00924681    1.70415842    1.69566378      18
