          18
Lattice="  24.8920   0.0000   0.0000   0.0000  24.8920   0.0000   0.0000   0.0000  24.8920 " ConfE="      -5933.9076" DelE="          0.0000"
Ni     0.00472447    0.08579952   -3.63248910       1
Ni     3.54053191    0.05256332   -0.08044711       2
Cr    -0.07954227    3.55003182   -0.04679420       3
Co    -3.57752644    0.01508418   -0.07002732       4
Cr     0.00126609   -3.54368583   -0.01550327       5
Cr    -0.06765773    0.01372559    3.46236756       6
Ni    -1.73347226    0.04864202   -1.82228852       7
Ni     1.71364255    0.08589359   -1.85379249       8
Ni     1.70052202    1.81637663   -0.07862109       9
Ni    -1.78166879   -1.74451127   -0.07291904      10
Cr    -1.73751605    1.76143287   -0.06465076      11
Ni    -0.02185462    1.79541313    1.74471044      12
Co     0.02953920   -1.79873046   -1.78895344      13
Cr    -1.91723578    0.05045323    1.70463509      14
Cr    -0.00580779   -1.75711696    1.72089876      15
Cr     1.76392535   -1.69641769   -0.04826504      16
Cr     1.84036499    0.07375991    1.76103544      17
Co     0.00000000    0.00000000    0.00000000      18
          18
Lattice="  24.8920   0.0000   0.0000   0.0000  24.8920   0.0000   0.0000   0.0000  24.8920 " ConfE="      -5932.8992" DelE="          1.0085"
Ni    -0.00318035    0.09356419   -3.58173964       1
Ni     3.61421239    0.03037866   -0.07499998       2
Cr    -0.02452484    3.51775699   -0.07108017       3
Co    -3.66340943   -0.01659676   -0.05275818       4
Cr    -0.00614746   -3.54181811   -0.02448145       5
Cr    -0.06264859    0.03258116    3.49155000       6
Ni    -1.93180880   -0.03237527   -1.86149761       7
Ni     1.85509211    0.04969264   -1.88582050       8
Ni     1.88591886    1.81871269   -0.00936981       9
Ni    -1.76561687   -1.69517168   -0.07627994      10
Cr    -1.90463091    1.75265601    0.00516678      11
Ni    -0.00357948    1.73439547    1.65144760      12
Co     0.03887188   -1.70056909   -1.76179636      13
Cr    -1.85558479    0.03085195    1.67624120      14
Cr    -0.00723784   -1.68790195    1.67598473      15
Cr     1.70477847   -1.61124414   -0.08689101      16
Cr     1.78634431    0.03740305    1.68367311      17
Co    -0.08213857    1.10575366   -1.03814947      18
          18
Lattice="  24.8920   0.0000   0.0000   0.0000  24.8920   0.0000   0.0000   0.0000  24.8920 " ConfE="      -5933.6408" DelE="          0.2669"
Ni     0.00268834    0.07662219   -3.64912250       1
Ni     3.56626582    0.04038023   -0.07375195       2
Cr    -0.06054629    3.57494789   -0.05563170       3
Co    -3.59506554    0.00953453   -0.06488419       4
Cr     0.00264999   -3.56499443   -0.00714135       5
Cr    -0.06144052    0.02216770    3.50367612       6
Ni    -1.74672398    0.02615100   -1.81194762       7
Ni     1.72327854    0.06629492   -1.83760584       8
Ni     1.71691970    1.77951703   -0.06038038       9
Ni    -1.74403975   -1.70606241   -0.06214833      10
Cr    -1.73398525    1.73133113   -0.06908110      11
Ni    -0.01889810    1.74647758    1.68635578      12
Co     0.04227634   -1.76376190   -1.75930253      13
Cr    -1.87475673    0.04379376    1.69627036      14
Cr    -0.00303174   -1.69756225    1.69561996      15
Cr     1.71853782   -1.66193827   -0.05278806      16
Cr     1.80597514    0.03825815    1.73579529      17
Co    -0.04880324    1.86291583   -1.82251433      18
