          18
Lattice="  24.8920   0.0000   0.0000   0.0000  24.8920   0.0000   0.0000   0.0000  24.8920 " ConfE="      -5934.4489" DelE="          0.0000"
Cr    -0.00445732    0.09986799    3.54541629       1
Cr     0.05083111    3.48553339   -0.05331607       2
Ni    -0.01408459   -0.00808796   -3.58205659       3
Cr     0.02122851   -3.49534128    0.01757595       4
Ni    -3.56841460   -0.00157399    0.00177782       5
Co     3.54766682    0.00870216   -0.02942303       6
Ni    -1.77399634    0.00601885    1.78089959       7
Ni     1.74714557    0.04123800    1.77163017       8
Ni    -1.77223673    1.75187502    0.00445151       9
Ni     1.76982993    1.75751626   -0.01947519      10
Cr    -0.00087354   -1.77055452    1.77548672      11
Cr    -0.03143214    1.72924099   -1.79796697      12
Co     0.05224176   -1.81066177   -1.81236772      13
Co    -1.73903311   -1.81693299    0.04258104      14
Ni     1.79407517   -1.76187686   -0.01016136      15
Ni    -1.76810223   -0.01654605   -1.78300778      16
Cr     1.75813564    0.00970426   -1.80555247      17
Co     0.00000000    0.00000000    0.00000000      18
          18
Lattice="  24.8920   0.0000   0.0000   0.0000  24.8920   0.0000   0.0000   0.0000  24.8920 " ConfE="      -5933.7977" DelE="          0.6512"
Cr    -0.03319633    0.16654291    3.41063676       1
Cr     0.05466225    3.39668131    0.01638316       2
Ni    -0.02324042    0.01037326   -3.56752790       3
Cr     0.02977587   -3.52525458    0.04451355       4
Ni    -3.62591815    0.00110005   -0.00341025       5
Co     3.61285556   -0.00903620   -0.03634481       6
Ni    -1.94161348    0.01358162    1.81436591       7
Ni     1.92199311    0.00174545    1.80113875       8
Ni    -1.96409539    1.82786178   -0.02985888       9
Ni     1.95719131    1.78875362   -0.05973955      10
Cr    -0.04575163   -1.65963276    1.72319165      11
Cr    -0.04261898    1.70775675   -1.70352848      12
Co     0.04552066   -1.76128793   -1.75789993      13
Co    -1.71767806   -1.76742033    0.07418964      14
Ni     1.76586192   -1.70817710    0.01064558      15
Ni    -1.74855909    0.00573250   -1.71619045      16
Cr     1.71179115    0.01647183   -1.74643678      17
Co     0.00648315    0.71194384    0.63752372      18
          18
Lattice="  24.8920   0.0000   0.0000   0.0000  24.8920   0.0000   0.0000   0.0000  24.8920 " ConfE="      -5934.7632" DelE="         -0.3144"
Cr     0.00935452    0.01434239    3.59460725       1
Cr     0.04961532    3.53218143   -0.09801527       2
Ni    -0.01404757   -0.00846012   -3.59961180       3
Cr     0.02817167   -3.54202515    0.01816137       4
Ni    -3.57933442   -0.00352609    0.00219116       5
Co     3.56495681   -0.00215868   -0.03732290       6
Ni    -1.76885970   -0.01062070    1.76929443       7
Ni     1.75295005   -0.01664341    1.73820326       8
Ni    -1.76094706    1.72429581   -0.00870209       9
Ni     1.76508280    1.71639395   -0.05314668      10
Cr    -0.02011467   -1.74104711    1.73213272      11
Cr    -0.02469344    1.69115648   -1.75283675      12
Co     0.06409345   -1.78979906   -1.79624038      13
Co    -1.68662092   -1.79931966    0.05682734      14
Ni     1.76893965   -1.75400215   -0.02042452      15
Ni    -1.73423866   -0.02433264   -1.75907051      16
Cr     1.73823199   -0.00754353   -1.80995364      17
Co     0.03374375    1.74693638    1.73635819      18
