          18
Lattice="  24.8920   0.0000   0.0000   0.0000  24.8920   0.0000   0.0000   0.0000  24.8920 " ConfE="      -5938.0442" DelE="          0.0000"
Ni     3.63316794    0.00236408    0.00170221       1
Cr     0.02054336   -3.46704010    0.09066494       2
Co    -3.43964291   -0.03300592   -0.03789558       3
Cr     0.08476804   -0.03723249    3.45188483       4
Cr     0.05131390    3.55521399   -0.02741130       5
Co     0.07334828    0.04449081   -3.59235756       6
Ni     0.03956533   -1.75380513   -1.77642503       7
Ni    -1.69780120    0.01409478   -1.81459463       8
Ni     1.84639592   -1.75214021   -0.01671402       9
Co     0.02170157   -1.79273390    1.73702281      10
Co    -1.72999157   -0.03927681    1.72783432      11
Ni     1.83168535   -0.00246481   -1.79702113      12
Co     1.82702298    0.00462448    1.78133460      13
Co     1.78452751    1.79302048   -0.01365601      14
Cr    -1.74257566    1.82357313   -0.02429743      15
Cr     0.02829497    1.76536911    1.75889468      16
Cr     0.11213180    1.79422865   -1.82040858      17
Ni     0.00000000    0.00000000    0.00000000      18
          18
Lattice="  24.8920   0.0000   0.0000   0.0000  24.8920   0.0000   0.0000   0.0000  24.8920 " ConfE="      -5937.3342" DelE="          0.7100"
Ni     3.62831650   -0.00892689    0.00224630       1
Cr     0.01995152   -3.43583940    0.05467884       2
Co    -3.43313949   -0.02806734   -0.04328915       3
Cr     0.10920804   -0.02697799    3.55346430       4
Cr     0.04657647    3.56085163   -0.03311980       5
Co     0.08420901    0.05489435   -3.65216023       6
Ni     0.09314867   -1.75433161   -1.92464699       7
Ni    -1.71727265    0.04046006   -1.94635017       8
Ni     1.76332618   -1.71287843   -0.02046867       9
Co     0.13432290   -1.74428642    1.92289336      10
Co    -1.70043191    0.09166172    1.91356466      11
Ni     1.82039169   -0.01338159   -1.80800168      12
Co     1.81412026    0.00649177    1.78588227      13
Co     1.73473598    1.73253071   -0.01100846      14
Cr    -1.66449793    1.70221683   -0.02414918      15
Cr     0.05649589    1.64848408    1.67518731      16
Cr     0.10878131    1.71130688   -1.72912012      17
Ni    -1.07004836   -1.06444912    0.02859752      18
          18
Lattice="  24.8920   0.0000   0.0000   0.0000  24.8920   0.0000   0.0000   0.0000  24.8920 " ConfE="      -5937.9746" DelE="          0.0696"
Ni     3.64544984   -0.00222543    0.00441045       1
Cr     0.08472438   -3.54895967    0.07172374       2
Co    -3.49493147    0.01545854   -0.03673494       3
Cr     0.10226225   -0.03898767    3.48267817       4
Cr     0.05887203    3.60462762   -0.03460553       5
Co     0.07907343    0.04835334   -3.60379123       6
Ni     0.06998359   -1.74278676   -1.77977915       7
Ni    -1.65665345    0.02525882   -1.78331799       8
Ni     1.81038735   -1.73870997   -0.01384655       9
Co     0.07469412   -1.73861354    1.76148354      10
Co    -1.64630924    0.04181728    1.70282757      11
Ni     1.82421148   -0.00933472   -1.78498260      12
Co     1.81154037    0.00979541    1.76748077      13
Co     1.75078205    1.75313130   -0.01461099      14
Cr    -1.68636797    1.78506001   -0.03636513      15
Cr     0.05380721    1.68190301    1.64560948      16
Cr     0.13362082    1.76910015   -1.73210226      17
Ni    -1.67738088   -1.74988814    0.00195953      18
