          18
Lattice="  24.8920   0.0000   0.0000   0.0000  24.8920   0.0000   0.0000   0.0000  24.8920 " ConfE="      -5944.7911" DelE="          0.0000"
Ni    -0.00808784    0.00276811   -3.50287705       1
Co    -0.01019735    3.51639585   -0.00591954       2
Ni    -0.00275646   -0.00200595    3.61479028       3
Cr    -0.02532206   -3.51201043    0.01242977       4
Ni    -3.51262253    0.04179003    0.02159502       5
Cr     3.55888461    0.05204448    0.01039017       6
Ni    -1.74723065    0.00193263   -1.76462259       7
Ni     1.75573865    0.01987922   -1.71964265       8
Cr    -1.60740799    1.82143936   -0.07271237       9
Cr     1.59689028    1.84499801   -0.02202648      10
Co    -0.00445001   -1.85654822   -1.69022366      11
Co     0.01286989    1.74995364    1.83744026      12
Cr    -0.05029224   -1.73614544    1.77295870      13
Co    -1.76581884   -1.79157901    0.08199299      14
Ni     1.78249543   -1.77202174    0.05852304      15
Co    -1.78102068    0.03648861    1.81104444      16
Cr     1.77856407    0.05577515    1.82356303      17
Ni     0.00000000    0.00000000    0.00000000      18
          18
Lattice="  24.8920   0.0000   0.0000   0.0000  24.8920   0.0000   0.0000   0.0000  24.8920 " ConfE="      -5944.1011" DelE="          0.6899"
Ni    -0.00399186    0.01378958   -3.44441651       1
Co    -0.02342335    3.50490161   -0.00518949       2
Ni    -0.00705068    0.00695801    3.60937701       3
Cr    -0.01893738   -3.51391862    0.00064305       4
Ni    -3.59668660   -0.00702820    0.03758060       5
Cr     3.66782722    0.01614159    0.00958852       6
Ni    -1.88020217   -0.05493564   -1.77109132       7
Ni     1.90019788   -0.02654488   -1.72027499       8
Cr    -1.93901119    1.81135398    0.07678025       9
Cr     1.91442390    1.82933861    0.12798680      10
Co    -0.00600985   -1.78686515   -1.65782550      11
Co     0.01216978    1.70936643    1.74400091      12
Cr    -0.08075611   -1.65446385    1.67071359      13
Co    -1.73712791   -1.74622733    0.07287025      14
Ni     1.76491898   -1.72377762    0.06067152      15
Co    -1.75774997    0.02630053    1.76911699      16
Cr     1.72707294    0.04866646    1.77939962      17
Ni    -0.00453597    1.07977222   -0.93394923      18
          18
Lattice="  24.8920   0.0000   0.0000   0.0000  24.8920   0.0000   0.0000   0.0000  24.8920 " ConfE="      -5944.7030" DelE="          0.0881"
Ni    -0.00526901   -0.02432627   -3.53227513       1
Co    -0.01695276    3.56323635    0.01013110       2
Ni    -0.00594758   -0.00224478    3.63511846       3
Cr    -0.02424732   -3.51818543    0.00671673       4
Ni    -3.53866799    0.01541995    0.03344294       5
Cr     3.60698667    0.03433914    0.01977683       6
Ni    -1.74831403   -0.02988221   -1.72861778       7
Ni     1.74454547   -0.00393689   -1.67221607       8
Cr    -1.63590352    1.72791769    0.05230117       9
Cr     1.63836844    1.77668278    0.07714030      10
Co    -0.00561783   -1.82507798   -1.65969665      11
Co     0.01975656    1.71334748    1.77090323      12
Cr    -0.07542857   -1.69264736    1.71847040      13
Co    -1.71349517   -1.76146771    0.08501615      14
Ni     1.74480136   -1.73314812    0.07832147      15
Co    -1.74070725    0.00811446    1.78842936      16
Cr     1.74936203    0.02367913    1.82369245      17
Ni    -0.00828990    1.73569246   -1.74530033      18
