          18
Lattice="  24.8920   0.0000   0.0000   0.0000  24.8920   0.0000   0.0000   0.0000  24.8920 " ConfE="      -5922.6825" DelE="          0.0000"
Cr    -0.00350058   -0.01011404    3.47456868       1
Ni     3.40670740   -0.01315707   -0.00982844       2
Co    -0.03279960   -0.03702758   -3.58969629       3
Co    -3.64113895   -0.00830663   -0.01638572       4
Cr     0.00317953   -3.41103868    0.01200923       5
Cr    -0.03781632    3.56672596   -0.02591249       6
Co    -0.02505324   -1.70320016    1.79934409       7
Cr     0.02398743    1.74641110    1.69470990       8
Co     1.69502766   -1.79822088   -0.00178975       9
Cr     1.73427844    1.79310185   -0.07306527      10
Ni    -1.85281052   -0.00415771    1.73754581      11
Co     1.71305530   -0.03033028   -1.85654603      12
Ni    -1.84635232   -0.01459059   -1.80948284      13
Ni    -1.82776975   -1.75949097   -0.02114575      14
Cr    -1.83160420    1.74160657   -0.01774076      15
Co    -0.04742201   -1.80455325   -1.82836636      16
Ni    -0.05746334    1.74618797   -1.80600643      17
Ni     0.00000000    0.00000000    0.00000000      18
          18
Lattice="  24.8920   0.0000   0.0000   0.0000  24.8920   0.0000   0.0000   0.0000  24.8920 " ConfE="      -5922.1703" DelE="          0.5123"
Cr     0.00801841    0.00198325    3.47772945       1
Ni     3.43295430   -0.02372579   -0.02299048       2
Co    -0.02609338   -0.04354143   -3.58091025       3
Co    -3.64485971   -0.01626822   -0.00785041       4
Cr    -0.02021040   -3.46141764   -0.00365866       5
Cr    -0.07399373    3.63599786   -0.05576033       6
Co    -0.09868890   -1.84791327    1.77575515       7
Cr    -0.08730613    1.95546005    1.68745469       8
Co     1.71343095   -1.93699348   -0.04734256       9
Cr     1.83815135    1.97054095   -0.18569292      10
Ni    -1.79169813    0.00290016    1.72155120      11
Co     1.68578394   -0.03574617   -1.77247833      12
Ni    -1.83133421   -0.01398459   -1.78829605      13
Ni    -1.79332382   -1.74139579   -0.02018599      14
Cr    -1.80583072    1.71504134   -0.00987727      15
Co    -0.03079595   -1.78860162   -1.77901290      16
Ni    -0.05118349    1.71774351   -1.73527415      17
Ni     1.11314697    0.08008584    1.02644135      18
          18
Lattice="  24.8920   0.0000   0.0000   0.0000  24.8920   0.0000   0.0000   0.0000  24.8920 " ConfE="      -5922.6029" DelE="          0.0796"
Cr    -0.05761975   -0.02135849    3.58107871       1
Ni     3.47554214   -0.01521303   -0.04366731       2
Co    -0.03143571   -0.04018710   -3.60136246       3
Co    -3.65022337   -0.01262385   -0.01676971       4
Cr    -0.01288062   -3.44253744   -0.00228930       5
Cr    -0.03855063    3.62296334   -0.04981196       6
Co    -0.08594891   -1.75545094    1.75999921       7
Cr    -0.03866272    1.77590034    1.62999575       8
Co     1.64953460   -1.77000690   -0.03541745       9
Cr     1.65664860    1.72019717   -0.09503996      10
Ni    -1.80002503    0.00262033    1.71372135      11
Co     1.68760999   -0.02216758   -1.79728055      12
Ni    -1.83751121   -0.01818955   -1.80153016      13
Ni    -1.80300838   -1.74328180   -0.03228494      14
Cr    -1.78912673    1.71282331   -0.03335969      15
Co    -0.05037478   -1.79548589   -1.81928124      16
Ni    -0.06882014    1.71930794   -1.78144338      17
Ni     1.66382066   -0.01827686    1.71438248      18
