          18
Lattice="  24.8920   0.0000   0.0000   0.0000  24.8920   0.0000   0.0000   0.0000  24.8920 " ConfE="      -5948.9141" DelE="          0.0000"
Co    -3.45293997   -0.03478214   -0.02082096       1
Co     0.02268625    0.02848374   -3.47279201       2
Ni     0.04459819    3.52332938    0.01714785       3
Ni     0.03133706   -3.56321718   -0.00421901       4
Cr     0.10442896   -0.05407443    3.57605095       5
Co     3.60954145   -0.01408000   -0.02303647       6
Cr    -1.66860596    1.66558545   -0.02723641       7
Co    -0.01767181   -1.71734694   -1.71786071       8
Cr    -1.70643701   -1.71849634   -0.06872718       9
Cr    -0.00477952    1.69810034   -1.79046963      10
Ni     0.04591788   -1.81547188    1.79634974      11
Ni     1.81596323    1.75119721   -0.00079691      12
Ni    -1.71534271   -0.04096877    1.82293920      13
Co     0.06778652    1.72590011    1.78973634      14
Co     1.82420276   -1.73737830   -0.01185773      15
Cr     1.78171124    0.02582398   -1.81803851      16
Cr     1.83034355   -0.04290847    1.80325227      17
Co     0.00000000    0.00000000    0.00000000      18
          18
Lattice="  24.8920   0.0000   0.0000   0.0000  24.8920   0.0000   0.0000   0.0000  24.8920 " ConfE="      -5948.4077" DelE="          0.5064"
Co    -3.39928568   -0.03489483   -0.04985897       1
Co     0.00936263    0.03086505   -3.41112095       2
Ni     0.04864901    3.56606418    0.02995749       3
Ni     0.04917541   -3.61796896    0.00254290       4
Cr     0.09812961   -0.04821378    3.56839420       5
Co     3.61522491   -0.01377898   -0.03053493       6
Cr    -1.76237050    1.87630294    0.07299880       7
Co     0.04301965   -1.85730086   -1.76545280       8
Cr    -1.73004475   -1.90181126   -0.02029328       9
Cr     0.02120801    1.86404480   -1.83098146      10
Ni     0.03056141   -1.81996302    1.77178020      11
Ni     1.79394208    1.75471135   -0.01480479      12
Ni    -1.69267133   -0.05292968    1.75976199      13
Co     0.04321569    1.68446652    1.70957062      14
Co     1.77965786   -1.70637465   -0.02187208      15
Cr     1.69458624    0.01573146   -1.73710900      16
Cr     1.76398830   -0.04756189    1.70182476      17
Co    -0.70301987    0.04129102   -0.65439863      18
          18
Lattice="  24.8920   0.0000   0.0000   0.0000  24.8920   0.0000   0.0000   0.0000  24.8920 " ConfE="      -5948.9072" DelE="          0.0070"
Co    -3.51574890   -0.01667426    0.02774825       1
Co     0.05170744    0.01850827   -3.53161433       2
Ni     0.05357885    3.55062300    0.02293359       3
Ni     0.04509384   -3.59117959    0.00653304       4
Cr     0.11329346   -0.05250372    3.59333170       5
Co     3.62830246   -0.01725323   -0.02640464       6
Cr    -1.63914470    1.68885353    0.01683964       7
Co     0.03797423   -1.71021295   -1.68241613       8
Cr    -1.69393693   -1.75443220   -0.02430062       9
Cr     0.03350589    1.72028957   -1.75741680      10
Ni     0.05245002   -1.80278320    1.78014799      11
Ni     1.79507758    1.72372894   -0.00387706      12
Ni    -1.67270451   -0.05277701    1.75997747      13
Co     0.07126130    1.68617943    1.74239966      14
Co     1.80247076   -1.68947160    0.00563034      15
Cr     1.70269082    0.00681571   -1.76333475      16
Cr     1.81136248   -0.04842636    1.77718256      17
Co    -1.63941503    0.02202470   -1.66037444      18
