          18
Lattice="  24.8920   0.0000   0.0000   0.0000  24.8920   0.0000   0.0000   0.0000  24.8920 " ConfE="      -5942.8586" DelE="          0.0000"
Cr    -0.01093383   -3.57288110   -0.07527864       1
Cr     0.07362949   -0.06580315   -3.44789032       2
Cr     0.05982570    3.56562435    0.00192170       3
Ni    -0.00847497    0.00211877    3.56536772       4
Co    -3.55345640   -0.01245543   -0.02164954       5
Cr     3.52500855    0.03031055   -0.03359441       6
Ni    -1.71326321   -1.77781627   -0.03708444       7
Ni     1.74017631   -1.77951968   -0.02901405       8
Ni    -1.74137034   -0.00473258   -1.77125364       9
Co     1.76345966   -0.00391868   -1.78746301      10
Co    -0.04631210   -1.77633485    1.78244386      11
Co     0.01754623    1.83947601   -1.79907616      12
Co     0.02334029    1.79132450    1.80043550      13
Cr    -1.80722998   -0.04430025    1.76921519      14
Ni     1.77400002   -0.01218151    1.78604617      15
Ni    -1.75682033    1.79245765    0.01951984      16
Ni     1.77456482    1.78172653    0.02079576      17
Ni     0.00000000    0.00000000    0.00000000      18
          18
Lattice="  24.8920   0.0000   0.0000   0.0000  24.8920   0.0000   0.0000   0.0000  24.8920 " ConfE="      -5942.3027" DelE="          0.5559"
Cr    -0.00310053   -3.48632176   -0.10666319       1
Cr     0.09044810   -0.13437176   -3.35002416       2
Cr     0.05734252    3.57733730   -0.01225308       3
Ni    -0.00127527   -0.00593773    3.56205133       4
Co    -3.61301579    0.00517621   -0.02057195       5
Cr     3.60450397    0.06213002    0.00743769       6
Ni    -1.88762669   -1.79692581    0.00665601       7
Ni     1.96997512   -1.81893743    0.03383465       8
Ni    -1.87610655    0.02023881   -1.79258152       9
Co     1.98897780    0.07359541   -1.80034413      10
Co    -0.05402641   -1.73167246    1.70871646      11
Co     0.02129470    1.77123593   -1.78364340      12
Co     0.01466309    1.74708403    1.75249546      13
Cr    -1.75994808   -0.04920440    1.70852195      14
Ni     1.76865900   -0.01994083    1.74953150      15
Ni    -1.74720511    1.75891300    0.00891599      16
Ni     1.75776168    1.75480774    0.01664318      17
Ni     0.06652074   -0.64298309   -0.62981561      18
          18
Lattice="  24.8920   0.0000   0.0000   0.0000  24.8920   0.0000   0.0000   0.0000  24.8920 " ConfE="      -5943.0851" DelE="         -0.2265"
Cr    -0.02009804   -3.62788058    0.00850275       1
Cr     0.06377879    0.05295904   -3.53718164       2
Cr     0.05814139    3.57678660    0.00589314       3
Ni    -0.00681045    0.00517950    3.59707598       4
Co    -3.57794851   -0.00270835   -0.01601229       5
Cr     3.55499216    0.03946836   -0.01592220       6
Ni    -1.72882220   -1.74338027    0.00473342       7
Ni     1.75340652   -1.75458671    0.01482228       8
Ni    -1.72728702    0.01881538   -1.74253906       9
Co     1.78778539    0.03448462   -1.75896208      10
Co    -0.06010493   -1.71490009    1.74843498      11
Co     0.02243720    1.80394084   -1.77706916      12
Co     0.01329474    1.75635480    1.78468085      13
Cr    -1.77654997   -0.04535624    1.77020004      14
Ni     1.75209340   -0.00756724    1.77695728      15
Ni    -1.72272698    1.75825782    0.03287885      16
Ni     1.74199075    1.75346713    0.03098558      17
Ni     0.02688208   -1.74675790   -1.74075858      18
