          18
Lattice="  24.8920   0.0000   0.0000   0.0000  24.8920   0.0000   0.0000   0.0000  24.8920 " ConfE="      -5949.0404" DelE="          0.0000"
Ni    -3.59477825    0.05795275   -0.03278262       1
Ni    -0.06949670    3.57645817   -0.03097671       2
Ni    -0.04742665    0.07166460    3.55833970       3
Co    -0.00525290    0.02905129   -3.60912929       4
Cr    -0.03551337   -3.43014478   -0.02688927       5
Co     3.48496386    0.07739283   -0.01653815       6
Ni    -1.81180506   -1.68376148   -0.03379165       7
Ni    -1.81801114    1.77464963   -0.03571667       8
Ni    -0.09297849    1.73853485   -1.78521892       9
Co    -0.07989606   -1.67053002   -1.81508961      10
Ni    -1.82225570    0.06367534    1.78672091      11
Ni     1.71843770    0.08207513    1.76785644      12
Ni    -0.06030934    1.83120668    1.75347675      13
Cr     1.69866549   -1.68128371   -0.06251406      14
Co     1.75143475    0.04989236   -1.78089602      15
Cr    -0.03726741   -1.72304359    1.77083055      16
Cr     1.74391655    1.85968234   -0.02457274      17
Co     0.00000000    0.00000000    0.00000000      18
          18
Lattice="  24.8920   0.0000   0.0000   0.0000  24.8920   0.0000   0.0000   0.0000  24.8920 " ConfE="      -5947.8484" DelE="          1.1920"
Ni    -3.54848144    0.05751964   -0.03180372       1
Ni    -0.06135267    3.63891985   -0.01310562       2
Ni    -0.05854359    0.07784725    3.56204659       3
Co    -0.01798789    0.02704359   -3.55389955       4
Cr     0.00985312   -3.50754226    0.00587632       5
Co     3.46755873    0.08366902   -0.03164917       6
Ni    -1.82975666   -1.83452416    0.04268153       7
Ni    -1.84062256    1.90184136    0.00121180       8
Ni    -0.02360954    1.94986332   -1.81553964       9
Co    -0.01321993   -1.89883807   -1.91249151      10
Ni    -1.78377013    0.06154016    1.72735700      11
Ni     1.64755324    0.08050188    1.69922970      12
Ni    -0.06896832    1.83370637    1.71960313      13
Cr     1.60384899   -1.62758785   -0.08688496      14
Co     1.65190085    0.04250828   -1.72427594      15
Cr    -0.05025166   -1.70841170    1.73424556      16
Cr     1.69286656    1.83181897   -0.04065671      17
Co    -0.86990701   -0.01298961   -0.97107810      18
          18
Lattice="  24.8920   0.0000   0.0000   0.0000  24.8920   0.0000   0.0000   0.0000  24.8920 " ConfE="      -5948.6009" DelE="          0.4395"
Ni    -3.62077354    0.05594483   -0.00951645       1
Ni    -0.06429724    3.60839541   -0.02596595       2
Ni    -0.04584330    0.07343471    3.56273538       3
Co     0.00141172    0.03779641   -3.60862984       4
Cr    -0.01148698   -3.48947634    0.00063856       5
Co     3.50180192    0.08070030   -0.01440299       6
Ni    -1.77623281   -1.68781631    0.00518014       7
Ni    -1.80305701    1.78350710   -0.02033257       8
Ni    -0.06200490    1.76640798   -1.75321764       9
Co    -0.03828958   -1.67161601   -1.74504110      10
Ni    -1.78924465    0.06218571    1.75364320      11
Ni     1.67370959    0.07586629    1.70295044      12
Ni    -0.04790921    1.82197878    1.71935392      13
Cr     1.67420867   -1.67328530   -0.06402131      14
Co     1.69691976    0.04524261   -1.70486386      15
Cr    -0.02076229   -1.71607936    1.74569921      16
Cr     1.75921273    1.87150886   -0.02393240      17
Co    -1.81727570    0.01464832   -1.79183054      18
