          18
Lattice="  24.8920   0.0000   0.0000   0.0000  24.8920   0.0000   0.0000   0.0000  24.8920 " ConfE="      -5929.5291" DelE="          0.0000"
Co     0.00879609   -3.51008823   -0.02041593       1
Co     0.02708079    0.05856052    3.48226502       2
Ni     0.01117961    3.61810334   -0.06419203       3
Cr     0.01541018    0.01522565   -3.58051053       4
Ni    -3.47487622    0.04257970   -0.05490579       5
Cr     3.59045134    0.00968614   -0.08645385       6
Co    -1.71184361   -1.78327362   -0.03488820       7
Co     1.77199884   -1.74747956   -0.04282101       8
Cr    -1.69161062    0.00193023    1.80775547       9
Ni     1.76870220    0.02746490    1.71125650      10
Cr     0.01899111   -1.80052401   -1.77158867      11
Ni     0.02246568    1.84928615    1.72542497      12
Co     0.04285623    1.80009411   -1.81967617      13
Co    -1.67752178   -0.01694705   -1.87717623      14
Cr     1.81394880   -0.05018593   -1.81033913      15
Ni    -1.74529723    1.81879649   -0.03251435      16
Cr     1.76777595    1.80922768   -0.09576675      17
Ni     0.00000000    0.00000000    0.00000000      18
          18
Lattice="  24.8920   0.0000   0.0000   0.0000  24.8920   0.0000   0.0000   0.0000  24.8920 " ConfE="      -5928.8300" DelE="          0.6991"
Co     0.02084927   -3.47973213   -0.04538821       1
Co     0.05934449    0.05348876    3.48240714       2
Ni     0.00871332    3.60143397   -0.05350588       3
Cr     0.01898996    0.03828683   -3.59297662       4
Ni    -3.54239571    0.05991508   -0.06524988       5
Cr     3.66841961    0.02154361   -0.11259216       6
Co    -1.92854591   -1.80872973   -0.14251848       7
Co     1.95382431   -1.74345378   -0.11140296       8
Cr    -1.83764498    0.07384162    1.83260108       9
Ni     1.90385658    0.07936966    1.72538052      10
Cr    -0.00978367   -1.69050517   -1.66202923      11
Ni     0.02289559    1.75829915    1.68136150      12
Co     0.07112534    1.72693230   -1.74123720      13
Co    -1.65569970   -0.03088438   -1.81872492      14
Cr     1.80982959   -0.05673459   -1.76890158      15
Ni    -1.74473246    1.76812791   -0.02442715      16
Cr     1.75274961    1.75611367   -0.09286253      17
Ni    -0.02367346   -1.02191531    0.92609936      18
          18
Lattice="  24.8920   0.0000   0.0000   0.0000  24.8920   0.0000   0.0000   0.0000  24.8920 " ConfE="      -5929.3888" DelE="          0.1404"
Co     0.00430147   -3.56510773   -0.06104935       1
Co     0.04692686    0.08280783    3.52132947       2
Ni     0.00800568    3.63129388   -0.06123011       3
Cr     0.01738938    0.10358840   -3.60657240       4
Ni    -3.50079092    0.04961748   -0.06494642       5
Cr     3.63080071    0.02179569   -0.09234564       6
Co    -1.72101884   -1.74184089   -0.07764310       7
Co     1.76156472   -1.70857706   -0.08485487       8
Cr    -1.71943676    0.07158871    1.76508135       9
Ni     1.76175500    0.05264266    1.65988093      10
Cr    -0.00791490   -1.69336585   -1.65935265      11
Ni     0.02090464    1.79558764    1.68258245      12
Co     0.07357928    1.77291480   -1.76238239      13
Co    -1.63213918   -0.00517166   -1.82648093      14
Cr     1.80104472   -0.02720066   -1.78583199      15
Ni    -1.73312860    1.79636647   -0.03873695      16
Cr     1.75099946    1.79768716   -0.10999849      17
Ni    -0.00135206   -1.70230558    1.66509881      18
