          18
Lattice="  24.8920   0.0000   0.0000   0.0000  24.8920   0.0000   0.0000   0.0000  24.8920 " ConfE="      -5929.5609" DelE="          0.0000"
Cr    -0.09519762   -0.03976862   -3.47579982       1
Co     3.44728273   -0.07072046   -0.01454319       2
Cr    -0.04370068    0.08317969    3.55546392       3
Co    -3.59130692   -0.10644432    0.04054728       4
Ni     0.01604873   -3.60399977    0.02099670       5
Cr    -0.00701801    3.45307878    0.04793874       6
Ni     0.02064938   -1.79305786   -1.72711758       7
Co    -0.02296929    1.64524171   -1.74110046       8
Cr     1.75692372   -1.72348696    0.07552793       9
Ni     1.74612737    1.70430827    0.02745925      10
Co    -1.86523324   -0.06476466   -1.75208245      11
Co     1.71662303   -0.02718740    1.81662954      12
Co    -1.80842696   -0.06485320    1.82744887      13
Ni    -1.79014076   -1.82016155    0.04424059      14
Ni    -1.82899323    1.70559170    0.04313623      15
Ni    -0.02972172   -1.79315217    1.81054988      16
Co    -0.05354469    1.74008038    1.81001041      17
Cr     0.00000000    0.00000000    0.00000000      18
          18
Lattice="  24.8920   0.0000   0.0000   0.0000  24.8920   0.0000   0.0000   0.0000  24.8920 " ConfE="      -5928.6963" DelE="          0.8646"
Cr    -0.11508374   -0.09175278   -3.48736250       1
Co     3.46985032   -0.03929856    0.00883702       2
Cr    -0.02825226    0.10017967    3.52411042       3
Co    -3.58237481   -0.11127396    0.02667272       4
Ni     0.00811914   -3.65102581    0.02172052       5
Cr    -0.03984098    3.55903430    0.09052421       6
Ni    -0.03504461   -1.95835132   -1.78445482       7
Co    -0.04617968    1.73277684   -1.72403681       8
Cr     1.77951317   -1.88069207    0.11795007       9
Ni     1.73696191    1.84028797    0.10626764      10
Co    -1.73301469   -0.07929243   -1.74061516      11
Co     1.69706169   -0.03184569    1.73578271      12
Co    -1.79034055   -0.07600400    1.81925065      13
Ni    -1.75339756   -1.80768798    0.02874162      14
Ni    -1.76737871    1.67230447    0.04150900      15
Ni    -0.01953272   -1.76777010    1.75542779      16
Co    -0.04367080    1.70757899    1.79546312      17
Cr     0.97066768   -0.09389875   -0.83608404      18
          18
Lattice="  24.8920   0.0000   0.0000   0.0000  24.8920   0.0000   0.0000   0.0000  24.8920 " ConfE="      -5929.2790" DelE="          0.2819"
Cr    -0.11073123   -0.05665357   -3.52201770       1
Co     3.53792342   -0.06696350    0.04034282       2
Cr    -0.04032921    0.10696158    3.54832527       3
Co    -3.61174764   -0.10271679    0.03542483       4
Ni    -0.00247390   -3.62799567    0.03493229       5
Cr    -0.01719432    3.49824546    0.07371931       6
Ni    -0.01379007   -1.81101657   -1.69945558       7
Co    -0.03330012    1.66379710   -1.72207133       8
Cr     1.72152987   -1.72676325    0.09768021       9
Ni     1.70877410    1.70491226    0.05500434      10
Co    -1.80450327   -0.05837545   -1.75359494      11
Co     1.68825912   -0.06548271    1.72851972      12
Co    -1.80850476   -0.06752236    1.83001300      13
Ni    -1.78712259   -1.79512058    0.05032476      14
Ni    -1.79362956    1.67991982    0.04771463      15
Ni    -0.05307787   -1.77978776    1.79934348      16
Co    -0.05498785    1.71451660    1.81519939      17
Cr     1.69339394   -0.03192278   -1.66849540      18
