          18
Lattice="  24.8920   0.0000   0.0000   0.0000  24.8920   0.0000   0.0000   0.0000  24.8920 " ConfE="      -5929.7151" DelE="          0.0000"
Co     0.07240439   -0.05282082   -3.53447044       1
Ni     3.45087549   -0.00335051   -0.04575014       2
Cr    -0.04688366    0.07246317    3.50347282       3
Ni    -3.58452982    0.01643000    0.02894179       4
Cr    -0.06566423   -3.59536694    0.02955852       5
Cr     0.00954926    3.55068475    0.07328438       6
Co    -0.01166284   -1.80261217   -1.76153597       7
Ni    -0.03399763    1.77655852   -1.74792321       8
Cr     1.71791803   -1.78873683   -0.06759196       9
Ni     1.72811677    1.75568896   -0.01098966      10
Ni    -1.80339799    0.01124306   -1.77543005      11
Co     1.76239326    0.02563988    1.82510567      12
Co    -1.84479955    0.03109188    1.81162993      13
Ni    -1.80346743   -1.76592732    0.02228990      14
Ni    -1.79260054    1.78340061    0.02720037      15
Ni    -0.03793085   -1.75096586    1.76966728      16
Co    -0.01886131    1.77509415    1.84418884      17
Ni     0.00000000    0.00000000    0.00000000      18
          18
Lattice="  24.8920   0.0000   0.0000   0.0000  24.8920   0.0000   0.0000   0.0000  24.8920 " ConfE="      -5929.2230" DelE="          0.4921"
Co     0.07123141   -0.06946377   -3.51951184       1
Ni     3.39688065   -0.00677850   -0.05802660       2
Cr    -0.03193572    0.07288826    3.50127794       3
Ni    -3.56679112    0.02383003    0.00648451       4
Cr    -0.07287293   -3.64949716    0.04296393       5
Cr    -0.00083475    3.61792518    0.08756140       6
Co    -0.07433230   -1.99594153   -1.83870461       7
Ni    -0.05875739    1.90569864   -1.75509094       8
Cr     1.78963821   -1.96834311   -0.03451861       9
Ni     1.74324121    1.89217357    0.04475829      10
Ni    -1.72241468    0.01466162   -1.75514325      11
Co     1.72508663    0.00925720    1.76703640      12
Co    -1.80755973    0.02965369    1.77873252      13
Ni    -1.75921214   -1.75460822   -0.00036580      14
Ni    -1.75982494    1.78831828    0.02257494      15
Ni    -0.02316753   -1.73899230    1.72332558      16
Co    -0.01715530    1.74275480    1.81094244      17
Ni     0.67864298   -0.07656956   -0.69694747      18
          18
Lattice="  24.8920   0.0000   0.0000   0.0000  24.8920   0.0000   0.0000   0.0000  24.8920 " ConfE="      -5929.8894" DelE="         -0.1743"
Co     0.02769373   -0.05415032   -3.60557530       1
Ni     3.50083299   -0.00199878    0.01648859       2
Cr    -0.04184321    0.08992347    3.50516560       3
Ni    -3.58339895    0.01922440    0.02418527       4
Cr    -0.07320763   -3.62492357    0.03616992       5
Cr     0.00495032    3.58652750    0.08436993       6
Co    -0.02347986   -1.82644560   -1.77068618       7
Ni    -0.04903669    1.78740343   -1.72557957       8
Cr     1.69078939   -1.80891163   -0.01153913       9
Ni     1.69030570    1.75628857    0.04135285      10
Ni    -1.75898941    0.00984212   -1.75735643      11
Co     1.73376151    0.01962457    1.79897411      12
Co    -1.82825331    0.03567703    1.80366200      13
Ni    -1.76563488   -1.73789056    0.01667293      14
Ni    -1.75704185    1.76401402    0.03656485      15
Ni    -0.03747544   -1.71739147    1.73858121      16
Co    -0.03082785    1.75409401    1.84871290      17
Ni     1.67477186   -0.00524310   -1.69912838      18
