          18
Lattice="  24.8920   0.0000   0.0000   0.0000  24.8920   0.0000   0.0000   0.0000  24.8920 " ConfE="      -5943.0053" DelE="          0.0000"
Cr    -0.04571306    3.44997291    0.01540036       1
Ni     3.50189015   -0.01171266   -0.02075318       2
Co    -0.02801083   -3.63885093   -0.06277054       3
Ni    -3.58945057   -0.08464885    0.00659943       4
Ni    -0.01777604   -0.07302101   -3.55787803       5
Cr    -0.08088585    0.00219130    3.43908014       6
Cr    -0.00158088    1.69098779   -1.70394953       7
Co     0.00138259    1.76609202    1.70628671       8
Ni     1.74205814   -0.02756312   -1.74888334       9
Cr     1.70236277    0.01249101    1.67825566      10
Co    -1.85212741    1.71848475   -0.01926582      11
Co     1.75040938   -1.86783630   -0.01192515      12
Ni    -1.81285080   -1.86852886   -0.01833503      13
Cr    -1.74964516   -0.07409061   -1.73628086      14
Co    -1.76519123   -0.02347621    1.74594915      15
Co    -0.03823262   -1.84307479   -1.77370587      16
Ni    -0.05011834   -1.85073219    1.72431947      17
Co     0.00000000    0.00000000    0.00000000      18
          18
Lattice="  24.8920   0.0000   0.0000   0.0000  24.8920   0.0000   0.0000   0.0000  24.8920 " ConfE="      -5942.3587" DelE="          0.6466"
Cr    -0.05815085    3.44642376   -0.00049343       1
Ni     3.48128464    0.01557857   -0.02548914       2
Co    -0.01402273   -3.62490279   -0.06020814       3
Ni    -3.58542989   -0.07036182   -0.00133623       4
Ni    -0.01967871   -0.11201512   -3.63725849       5
Cr    -0.08882781   -0.02282068    3.52226092       6
Cr    -0.02896942    1.69471012   -1.93682709       7
Co    -0.13079627    1.74395686    1.94477902       8
Ni     1.78360963   -0.08442392   -1.89625507       9
Cr     1.73869046    0.00182015    1.80858690      10
Co    -1.72929812    1.67087231   -0.03919656      11
Co     1.71662580   -1.76526131   -0.01032068      12
Ni    -1.77331732   -1.83646647   -0.01725161      13
Cr    -1.64724213   -0.08179524   -1.68253916      14
Co    -1.75620014   -0.01910753    1.73128999      15
Co    -0.02839069   -1.80957038   -1.77649262      16
Ni    -0.03438907   -1.77930393    1.71215514      17
Co     0.84845751    0.98177706    0.00256271      18
          18
Lattice="  24.8920   0.0000   0.0000   0.0000  24.8920   0.0000   0.0000   0.0000  24.8920 " ConfE="      -5943.0285" DelE="         -0.0232"
Cr    -0.06513468    3.51445049    0.02362232       1
Ni     3.54581125   -0.04036547   -0.02124807       2
Co    -0.03128430   -3.65324441   -0.06772014       3
Ni    -3.59542020   -0.08125788    0.00230017       4
Ni    -0.02080954   -0.07652625   -3.58292947       5
Cr    -0.10277938   -0.01568485    3.46188183       6
Cr    -0.02991003    1.67507885   -1.70586472       7
Co    -0.03513250    1.71034331    1.71898534       8
Ni     1.69502090   -0.05443859   -1.72624785       9
Cr     1.67105523   -0.07509391    1.66050794      10
Co    -1.77638101    1.67348720   -0.04434495      11
Co     1.73521420   -1.84032417   -0.00194734      12
Ni    -1.80869132   -1.86603211   -0.02076346      13
Cr    -1.69025086   -0.10090198   -1.69399859      14
Co    -1.74266641   -0.03139224    1.71374987      15
Co    -0.05301240   -1.82664679   -1.75934390      16
Ni    -0.06205003   -1.84081374    1.69867620      17
Co     1.71927571    1.72444601    0.01448931      18
