          18
Lattice="  24.8920   0.0000   0.0000   0.0000  24.8920   0.0000   0.0000   0.0000  24.8920 " ConfE="      -5938.9992" DelE="          0.0000"
Ni    -3.48412901   -0.04263414   -0.00759416       1
Co     0.04703366    3.48754592   -0.00733999       2
Cr     3.57969191   -0.11171235   -0.01175424       3
Co     0.05641574   -3.63608726   -0.00347329       4
Co     0.06253640   -0.05576711    3.55479097       5
Co     0.06088480   -0.07097261   -3.57934747       6
Ni    -1.71527118   -0.02120176    1.77474004       7
Ni    -1.74275193   -0.00574574   -1.75720325       8
Cr     0.07666338    1.74242593    1.76637852       9
Ni     0.00210732    1.73992697   -1.77044635      10
Ni    -1.70086145   -1.84503001    0.01333717      11
Ni     1.84367193    1.71985387   -0.02013239      12
Cr     1.74789925   -1.81399424    0.01107773      13
Co     0.06081772   -1.83023999    1.77005486      14
Cr     0.05735260   -1.80865816   -1.78905915      15
Co     1.81307398   -0.07204281    1.74774993      16
Co     1.81183301   -0.08392685   -1.78147334      17
Ni     0.00000000    0.00000000    0.00000000      18
          18
Lattice="  24.8920   0.0000   0.0000   0.0000  24.8920   0.0000   0.0000   0.0000  24.8920 " ConfE="      -5934.7727" DelE="          4.2265"
Ni    -3.62339949   -0.11144738   -0.11584999       1
Co     0.10407951    3.78553426   -0.16359209       2
Cr     3.64311707   -0.15430298   -0.04221280       3
Co     0.09830635   -3.73101852    0.00650234       4
Co     0.18569727   -0.21924260    3.72488492       5
Co     0.07069303   -0.07243561   -3.58826913       6
Ni    -1.51147628   -0.11565820    0.85608013       7
Ni    -1.67384803   -0.04453777   -1.68569419       8
Cr    -1.07605251    1.11772675    2.62942324       9
Ni     0.04093162    1.72172509   -1.72341663      10
Ni    -1.72565334   -2.12621202   -0.13881860      11
Ni     2.09998739    1.76784392   -0.15636641      12
Cr     1.59331662   -1.70195389    0.06913619      13
Co     0.01158693   -1.82983009    1.74998543      14
Cr     0.07748162   -1.78581410   -1.74376308      15
Co     1.75008186   -0.02003903    1.68229857      16
Co     1.79824985   -0.09772486   -1.75366143      17
Ni     0.04544511    1.65044083    0.79772568      18
          18
Lattice="  24.8920   0.0000   0.0000   0.0000  24.8920   0.0000   0.0000   0.0000  24.8920 " ConfE="      -5938.8414" DelE="          0.1578"
Ni    -3.43836679   -0.04008168    0.02458917       1
Co     0.05248634    3.52394071   -0.02485001       2
Cr     3.57344315   -0.11187663   -0.01423838       3
Co     0.05485203   -3.62737302    0.00161447       4
Co     0.04349977   -0.08051302    3.56065229       5
Co     0.06216782   -0.06852474   -3.58374750       6
Ni    -0.00315459   -0.02563398   -0.01010672       7
Ni    -1.73303112   -0.00608896   -1.75011535       8
Cr    -1.67935980   -0.10907686    1.86338410       9
Ni     0.00644507    1.74620716   -1.78190593      10
Ni    -1.70223115   -1.84470081    0.02263532      11
Ni     1.83434701    1.72164505   -0.02397545      12
Cr     1.75614455   -1.81110735   -0.00415889      13
Co     0.03608094   -1.83492604    1.78503907      14
Cr     0.05414763   -1.81785437   -1.80359538      15
Co     1.80026874   -0.07921645    1.74530412      16
Co     1.81579027   -0.08280110   -1.79318324      17
Ni     0.00162524    1.70087086    1.73168125      18
