          18
Lattice="  24.8920   0.0000   0.0000   0.0000  24.8920   0.0000   0.0000   0.0000  24.8920 " ConfE="      -5939.7052" DelE="          0.0000"
Co    -3.51091305    0.02485152    0.09154311       1
Cr    -0.06916907    0.01378639   -3.49819508       2
Cr     0.02519900   -3.52671432   -0.07051100       3
Co     3.57214392   -0.00079449    0.05284256       4
Co     0.06306455    0.00085231    3.61660423       5
Cr    -0.00254671    3.46385176    0.01293780       6
Ni    -1.75983664   -1.73406123    0.00298851       7
Cr    -0.00027510   -1.71453320   -1.80992988       8
Cr    -1.79975437    1.69031745    0.06326317       9
Cr    -0.01538400    1.67045423   -1.69238285      10
Ni     1.80930797   -1.78006202   -0.02370852      11
Ni     0.02045410    1.74292325    1.81760178      12
Cr    -1.77393755   -0.01965744    1.86056175      13
Co     1.79389666   -0.00403405   -1.77276518      14
Cr     0.03809713   -1.74957264    1.81470555      15
Cr     1.86211856   -0.07475353    1.79536383      16
Cr     1.84674085    1.70943583    0.04940081      17
Co     0.00000000    0.00000000    0.00000000      18
          18
Lattice="  24.8920   0.0000   0.0000   0.0000  24.8920   0.0000   0.0000   0.0000  24.8920 " ConfE="      -5935.4096" DelE="          4.2956"
Co    -3.75963346    0.04205804    0.19053475       1
Cr    -0.03542634   -0.03058585   -3.51029149       2
Cr     0.22325668   -3.43590876    0.02875535       3
Co     3.66433722    0.02769193    0.08206488       4
Co     0.02829927   -0.00862312    3.61254547       5
Cr     0.00018802    3.45536392    0.01897704       6
Ni    -1.56636681   -0.76011128   -0.28997292       7
Cr    -0.65598927   -3.08208388   -2.77206144       8
Cr    -1.80388683    1.70130160    0.07685033       9
Cr    -0.05100322    1.45620930   -1.57760555      10
Ni     1.88108992   -1.65742947    0.02924415      11
Ni    -0.00103690    1.64169149    1.74870951      12
Cr    -1.87431908   -0.02161812    1.92712131      13
Co     1.93851886    0.07747671   -1.75773724      14
Cr    -0.05814602   -1.63758072    1.66176824      15
Cr     1.90402877   -0.06095114    1.87975160      16
Cr     1.84373097    1.62535088    0.05394346      17
Co     0.14722807   -1.36977611   -1.66960027      18
          18
Lattice="  24.8920   0.0000   0.0000   0.0000  24.8920   0.0000   0.0000   0.0000  24.8920 " ConfE="      -5938.8548" DelE="          0.8504"
Co    -3.46548448    0.01666393    0.07814932       1
Cr    -0.11149715   -0.00733505   -3.38535386       2
Cr     0.04165529   -3.60429301   -0.05612671       3
Co     3.56732434   -0.00623241    0.05212609       4
Co     0.05869894    0.00070580    3.59140756       5
Cr     0.02338820    3.54645524    0.03907145       6
Ni    -0.80077878    0.05195205   -0.77762571       7
Cr    -1.75797376   -3.66042333   -1.76051648       8
Cr    -1.82633659    1.90849241    0.13451140       9
Cr     0.06050014    1.93089212   -1.76946800      10
Ni     1.79875359   -1.79787910   -0.03747205      11
Ni     0.02607376    1.76234841    1.78444355      12
Cr    -1.69504675   -0.00659311    1.74139834      13
Co     1.70900624    0.01589262   -1.70689980      14
Cr     0.01927845   -1.72573594    1.72738665      15
Cr     1.77666677   -0.06314963    1.68551037      16
Cr     1.78074262    1.69555009    0.00802362      17
Co     0.02304655   -1.93422260   -1.79950025      18
