          18
Lattice="  24.8920   0.0000   0.0000   0.0000  24.8920   0.0000   0.0000   0.0000  24.8920 " ConfE="      -5943.1384" DelE="          0.0000"
Ni     0.01984514    3.47451648    0.08726328       1
Ni     0.00635611   -0.00911849    3.66727963       2
Cr     0.06912224    0.03691384   -3.31556492       3
Co    -0.01417204   -3.52736323    0.12210773       4
Cr     3.60227453   -0.04990363    0.11317448       5
Co    -3.52974298   -0.02329325    0.10846374       6
Co     1.81798901    1.71831571    0.07190611       7
Co    -1.76729032    1.70627528    0.10125398       8
Co     1.77407871    0.01326905   -1.65673012       9
Co    -1.71700099    0.00852262   -1.67595490      10
Ni     0.00878457    1.73828423    1.87041184      11
Ni     1.77525504   -0.01326366    1.85741086      12
Co     1.78287835   -1.78054592    0.13474928      13
Cr    -1.71268860   -1.71462900    0.12710276      14
Co     0.03211865   -1.80841734   -1.65038124      15
Co    -0.00749729   -1.77851370    1.85834841      16
Co    -1.78202133   -0.00731702    1.87147151      17
Cr     0.00000000    0.00000000    0.00000000      18
          18
Lattice="  24.8920   0.0000   0.0000   0.0000  24.8920   0.0000   0.0000   0.0000  24.8920 " ConfE="      -5942.4220" DelE="          0.7163"
Ni     0.01932326    3.46768534    0.08870272       1
Ni     0.00679329   -0.00366617    3.65856107       2
Cr     0.05917224   -0.01088558   -3.39367537       3
Co    -0.01413171   -3.54728901    0.11342276       4
Cr     3.69095211   -0.10382152    0.15378242       5
Co    -3.59445120   -0.03066999    0.12034017       6
Co     1.93504099    1.74639814    0.10566748       7
Co    -1.87823609    1.73118316    0.13926440       8
Co     1.89063965   -0.02994844   -1.64265026       9
Co    -1.84772360   -0.03724883   -1.68200582      10
Ni     0.01352726    1.70727173    1.79729821      11
Ni     1.76371118   -0.01670628    1.81080693      12
Co     1.77442051   -1.76063338    0.12718361      13
Cr    -1.61768834   -1.61538623    0.12020428      14
Co     0.02789976   -1.70686665   -1.59493593      15
Co    -0.01666681   -1.75741659    1.81115454      16
Co    -1.76927841   -0.01155814    1.82482092      17
Cr     0.01466713    0.88807490   -0.78549035      18
          18
Lattice="  24.8920   0.0000   0.0000   0.0000  24.8920   0.0000   0.0000   0.0000  24.8920 " ConfE="      -5942.8837" DelE="          0.2547"
Ni     0.01964489    3.53579881    0.13008091       1
Ni     0.00227464   -0.01261133    3.67382999       2
Cr     0.08585360   -0.07984111   -3.43172607       3
Co    -0.01963729   -3.56934654    0.12775154       4
Cr     3.61332860   -0.07008040    0.12363021       5
Co    -3.55949925   -0.02935100    0.11356615       6
Co     1.81792864    1.71861362    0.08857751       7
Co    -1.76375810    1.69398150    0.11507532       8
Co     1.76865162   -0.01003246   -1.62403830       9
Co    -1.71176604   -0.02856365   -1.63559502      10
Ni     0.00274015    1.71310957    1.83230050      11
Ni     1.75407168   -0.02590783    1.83709893      12
Co     1.76845666   -1.78161817    0.14749216      13
Cr    -1.66197754   -1.70440281    0.14967045      14
Co     0.01996150   -1.74389638   -1.58577418      15
Co    -0.02501488   -1.77568433    1.83546599      16
Co    -1.78571028   -0.02793557    1.84992764      17
Cr     0.02642034    1.67108775   -1.58686102      18
