          18
Lattice="  24.8920   0.0000   0.0000   0.0000  24.8920   0.0000   0.0000   0.0000  24.8920 " ConfE="      -5939.7052" DelE="          0.0000"
Co     0.01404508    0.04702442    3.59928033       1
Cr     3.45585792    0.03553965    0.00805878       2
Cr     0.02919306   -0.00143028   -3.49970361       3
Co    -3.61445851   -0.01226680   -0.03277937       4
Cr    -0.04878988   -3.57693491   -0.02036567       5
Cr     0.02950152    3.56608724   -0.02415633       6
Ni    -0.00408179   -1.72999837    1.75569436       7
Ni    -0.00990341    1.75607459    1.78526150       8
Co     1.79434686   -1.73878384    0.01687581       9
Ni     1.73812729    1.75240763    0.04660808      10
Ni    -1.82020758    0.00307196    1.79381784      11
Co     1.77176709    0.01488473   -1.81598763      12
Ni    -1.79136475    0.00516269   -1.77368253      13
Ni    -1.78360862   -1.76677429    0.00625999      14
Ni    -1.79503336    1.78587276   -0.00225739      15
Co     0.00357715   -1.80012982   -1.78446516      16
Co     0.00073753    1.81316241   -1.80123280      17
Ni     0.00000000    0.00000000    0.00000000      18
          18
Lattice="  24.8920   0.0000   0.0000   0.0000  24.8920   0.0000   0.0000   0.0000  24.8920 " ConfE="      -5939.1170" DelE="          0.5881"
Co     0.02347603    0.05037511    3.58594005       1
Cr     3.34154800    0.05723312    0.02677485       2
Cr     0.03047694   -0.00375304   -3.53277757       3
Co    -3.58276856   -0.02317004   -0.01395111       4
Cr    -0.06003980   -3.65109038   -0.02451244       5
Cr     0.02555545    3.63203428   -0.02947898       6
Ni    -0.03793678   -1.87577023    1.80829115       7
Ni    -0.02302897    1.90434807    1.84480626       8
Co     1.81485646   -1.90017488   -0.02438733       9
Ni     1.75186989    1.92371827   -0.01140098      10
Ni    -1.73292568    0.00928369    1.79039270      11
Co     1.72694470    0.00850829   -1.76647753      12
Ni    -1.72734311    0.00088483   -1.74333271      13
Ni    -1.69894654   -1.74560655    0.02273572      14
Ni    -1.70709965    1.76531946    0.01822137      15
Co     0.01691333   -1.80344569   -1.76122605      16
Co     0.01078817    1.81150218   -1.78862390      17
Ni     0.56909982    0.01180367    0.57539817      18
          18
Lattice="  24.8920   0.0000   0.0000   0.0000  24.8920   0.0000   0.0000   0.0000  24.8920 " ConfE="      -5940.1928" DelE="         -0.4876"
Co    -0.02883717    0.02990861    3.63690219       1
Cr     3.49969538    0.04950949   -0.02608972       2
Cr     0.03386616   -0.00779236   -3.51117077       3
Co    -3.61598710   -0.01583633   -0.02730150       4
Cr    -0.05286417   -3.62627512   -0.02776630       5
Cr     0.02002488    3.60513038   -0.03727105       6
Ni    -0.02744051   -1.74895496    1.72581072       7
Ni    -0.04098063    1.77057699    1.76047984       8
Co     1.75618151   -1.75678748   -0.01636390       9
Ni     1.69476775    1.76064191    0.00613469      10
Ni    -1.78617099    0.00255323    1.77748181      11
Co     1.73421896    0.01164566   -1.76492593      12
Ni    -1.74516719    0.00306203   -1.74642791      13
Ni    -1.74046770   -1.74786635   -0.00134599      14
Ni    -1.76819298    1.77409807   -0.00988596      15
Co     0.00558652   -1.78499000   -1.76643587      16
Co    -0.00913663    1.80273122   -1.79880670      17
Ni     1.71190393    0.00819773    1.77055987      18
