          18
Lattice="  24.8920   0.0000   0.0000   0.0000  24.8920   0.0000   0.0000   0.0000  24.8920 " ConfE="      -5922.6923" DelE="          0.0000"
Ni    -0.04195654   -0.01216208   -3.52629686       1
Cr     3.44614947   -0.00348503    0.18918828       2
Cr    -0.05237218    0.02351085    3.52557081       3
Co    -3.59922652    0.02772346    0.00297523       4
Co    -0.03796526   -3.48226417   -0.00732484       5
Co    -0.03412531    3.54793149   -0.01209187       6
Cr     0.09853121   -1.68358661   -1.69338221       7
Ni    -0.01946873    1.73241359   -1.76542729       8
Co     1.75045002   -1.70829651   -0.00704212       9
Co     1.77131190    1.75309020   -0.02868732      10
Ni    -1.83083756   -0.00550702   -1.75549792      11
Co     1.69956514    0.01985207    1.82644464      12
Cr    -1.80829587    0.02311133    1.76016432      13
Ni    -1.80419803   -1.75265862    0.00475015      14
Cr    -1.80712922    1.77981005    0.00724865      15
Co    -0.04532448   -1.74131604    1.80371893      16
Co    -0.05921607    1.78852075    1.78139580      17
Co     0.00000000    0.00000000    0.00000000      18
          18
Lattice="  24.8920   0.0000   0.0000   0.0000  24.8920   0.0000   0.0000   0.0000  24.8920 " ConfE="      -5922.0339" DelE="          0.6583"
Ni    -0.04073823   -0.00096887   -3.53872881       1
Cr     3.39431818   -0.02243896    0.20101526       2
Cr    -0.03439858    0.02522161    3.56790411       3
Co    -3.58080142    0.03231487   -0.00430467       4
Co    -0.03736111   -3.51972389   -0.00473519       5
Co    -0.05884868    3.61282301    0.00210966       6
Cr     0.06992228   -1.79702960   -1.75869292       7
Ni    -0.07044592    1.85329993   -1.79741284       8
Co     1.80295964   -1.93348555    0.12684256       9
Co     1.79760264    1.96001099    0.01979180      10
Ni    -1.74643854   -0.00211373   -1.72772084      11
Co     1.66845181    0.02988582    1.76711792      12
Cr    -1.69315047    0.01905697    1.70596222      13
Ni    -1.72650537   -1.72323115   -0.00306427      14
Cr    -1.75150110    1.76050662    0.01268938      15
Co    -0.02555088   -1.72500820    1.79332170      16
Co    -0.05772197    1.77921347    1.74716938      17
Co     0.82873334   -0.02560569   -0.67404150      18
          18
Lattice="  24.8920   0.0000   0.0000   0.0000  24.8920   0.0000   0.0000   0.0000  24.8920 " ConfE="      -5923.0648" DelE="         -0.3726"
Ni    -0.05853864   -0.01101674   -3.55030709       1
Cr     3.48080021   -0.00686531    0.18876565       2
Cr    -0.04981798    0.02233908    3.56951078       3
Co    -3.60896012    0.03372238    0.00281346       4
Co    -0.05064079   -3.49735011   -0.00026554       5
Co    -0.04548022    3.57545869   -0.00133220       6
Cr     0.05249773   -1.70369731   -1.67006994       7
Ni    -0.04781701    1.73348705   -1.72443875       8
Co     1.67422717   -1.70145407    0.02105539       9
Co     1.73506420    1.77529954    0.00751299      10
Ni    -1.78169815   -0.00575120   -1.71499709      11
Co     1.66421358    0.02532759    1.77363225      12
Cr    -1.77843843    0.03523329    1.75508671      13
Ni    -1.77179921   -1.71864899    0.02128765      14
Cr    -1.78880673    1.75762816    0.03073054      15
Co    -0.06166900   -1.69840784    1.79885212      16
Co    -0.09171267    1.75081079    1.74736293      17
Co     1.75998684    0.02416908   -1.74392097      18
