          18
Lattice="  24.8920   0.0000   0.0000   0.0000  24.8920   0.0000   0.0000   0.0000  24.8920 " ConfE="      -5934.6514" DelE="          0.0000"
Ni    -0.03992587    0.01072211    3.62224413       1
Ni    -3.59092980   -0.00279575    0.07556572       2
Cr     3.46623027   -0.14559077    0.08847177       3
Cr    -0.09358270    0.01306622   -3.46413262       4
Cr     0.00187412    3.52219266    0.08537391       5
Cr    -0.07522324   -3.50437787    0.08448834       6
Ni     1.77096590    1.71190857    0.05166996       7
Ni    -0.03444847   -1.73351835   -1.71873830       8
Ni    -1.80075192    0.01076190    1.83740478       9
Ni     1.72946463    0.00809641    1.86550146      10
Ni    -1.79492475    1.75929119    0.06425159      11
Co     1.78182116   -1.75812643    0.05688146      12
Cr     0.01333273    1.61266531   -1.69157725      13
Co    -1.84749732   -0.02757605   -1.71202801      14
Co    -0.03748287   -1.78480915    1.81450699      15
Co    -0.03131178    1.81054146    1.81335851      16
Co    -1.83010178   -1.80454813    0.05723003      17
Co     0.00000000    0.00000000    0.00000000      18
          18
Lattice="  24.8920   0.0000   0.0000   0.0000  24.8920   0.0000   0.0000   0.0000  24.8920 " ConfE="      -5934.1516" DelE="          0.4999"
Ni    -0.03057653    0.01018898    3.62123904       1
Ni    -3.56891789    0.00248224    0.06527413       2
Cr     3.38247194   -0.08829026    0.03393282       3
Cr    -0.04642155   -0.02676247   -3.35295201       4
Cr    -0.01382814    3.66114430    0.13087497       5
Cr    -0.09369701   -3.58380698    0.09549770       6
Ni     1.78817475    1.90722685    0.09851359       7
Ni    -0.09252304   -1.90278856   -1.73003816       8
Ni    -1.75645421    0.01414150    1.79903661       9
Ni     1.69381621    0.02541009    1.79110976      10
Ni    -1.70906228    1.74068132    0.03517544      11
Co     1.79782996   -1.87051319    0.07731353      12
Cr    -0.01397323    1.83034697   -1.78516904      13
Co    -1.77442713   -0.03426888   -1.69695347      14
Co    -0.03551074   -1.78046565    1.77292074      15
Co    -0.02116762    1.83073200    1.80418897      16
Co    -1.82063684   -1.81436166    0.05013974      17
Co     0.57995483    0.04743400   -0.61819774      18
          18
Lattice="  24.8920   0.0000   0.0000   0.0000  24.8920   0.0000   0.0000   0.0000  24.8920 " ConfE="      -5935.0228" DelE="         -0.3713"
Ni    -0.03645051    0.01081633    3.62633445       1
Ni    -3.58189883    0.00482654    0.07219403       2
Cr     3.49142902   -0.09103899    0.09407725       3
Cr    -0.09688913   -0.04440606   -3.51244755       4
Cr    -0.01808235    3.65970529    0.11761120       5
Cr    -0.08090819   -3.55664022    0.10583048       6
Ni     1.68875819    1.74958760    0.04913316       7
Ni    -0.04771037   -1.75270295   -1.65933093       8
Ni    -1.78066858    0.01804862    1.82425839       9
Ni     1.69275003    0.01857773    1.80229616      10
Ni    -1.73579683    1.75212489    0.05457748      11
Co     1.76609224   -1.77908472    0.08100154      12
Cr    -0.01311731    1.61538766   -1.74170759      13
Co    -1.76929571   -0.01155814   -1.68196747      14
Co    -0.04426404   -1.77250009    1.78516527      15
Co    -0.03804122    1.82455454    1.81081005      16
Co    -1.82480656   -1.80318012    0.06863836      17
Co     1.71094596   -0.00688976   -1.72330870      18
