          18
Lattice="  24.8920   0.0000   0.0000   0.0000  24.8920   0.0000   0.0000   0.0000  24.8920 " ConfE="      -5945.1582" DelE="          0.0000"
Ni    -0.00415124    0.05124852    3.51918680       1
Ni    -0.09529657    3.59050535   -0.00921535       2
Ni    -0.05294691   -3.49362286    0.01114728       3
Cr     3.43117098   -0.00464039    0.04992878       4
Co    -3.61214904    0.05939229   -0.01025314       5
Co    -0.05082461    0.03678643   -3.55778365       6
Ni    -0.04904129    1.78881556    1.76125670       7
Ni    -0.03825327   -1.72442320    1.78446278       8
Ni     1.70291576    1.77449578    0.01995373       9
Ni    -1.86148485    0.01592205    1.76721376      10
Ni    -1.82313791    0.03166435   -1.76555695      11
Cr     1.67813863   -1.64160650   -0.00589874      12
Cr     1.69426307    0.03015317   -1.80744420      13
Cr    -0.04941984    1.79401075   -1.78404886      14
Co    -0.06108672   -1.74593456   -1.77936459      15
Cr    -1.81983920    1.77973854   -0.02230154      16
Cr    -1.83286373   -1.77214663   -0.00009811      17
Co     0.00000000    0.00000000    0.00000000      18
          18
Lattice="  24.8920   0.0000   0.0000   0.0000  24.8920   0.0000   0.0000   0.0000  24.8920 " ConfE="      -5943.9001" DelE="          1.2580"
Ni    -0.00174328    0.04332764    3.44331684       1
Ni    -0.09595925    3.71187095   -0.00797101       2
Ni    -0.05737127   -3.61944841    0.02066111       3
Cr     3.36396899   -0.00810645    0.04543308       4
Co    -3.55383381    0.06539542   -0.02101076       5
Co    -0.07032023    0.02849361   -3.49211552       6
Ni    -0.09980633    1.93164267    1.75249893       7
Ni    -0.11958474   -1.90013947    1.82198507       8
Ni     1.70721347    1.95862228   -0.02798618       9
Ni    -1.79280356    0.01236054    1.70719727      10
Ni    -1.21739429   -0.00809356   -1.14918735      11
Cr     1.64426887   -1.83787803   -0.09398338      12
Cr     1.58280744    0.02394544   -1.69506748      13
Cr    -0.02326917    1.91219827   -1.77331640      14
Co    -0.01383283   -1.92632519   -1.80188288      15
Cr    -1.82773250    1.93979222   -0.00260343      16
Cr    -1.83831933   -1.92571244    0.05174216      17
Co     0.83464883   -0.02509390    0.81688977      18
          18
Lattice="  24.8920   0.0000   0.0000   0.0000  24.8920   0.0000   0.0000   0.0000  24.8920 " ConfE="      -5945.0859" DelE="          0.0723"
Ni    -0.03873382    0.04474215    3.53951486       1
Ni    -0.12374763    3.57888217   -0.02775701       2
Ni    -0.07090325   -3.48881947    0.00645398       3
Cr     3.47349901   -0.00207848    0.02950721       4
Co    -3.54085801    0.07452314   -0.03804498       5
Co    -0.07264230    0.05303620   -3.50246197       6
Ni    -0.08611537    1.80596780    1.75429528       7
Ni    -0.07015122   -1.74338572    1.78355345       8
Ni     1.68150696    1.79034976   -0.00970074       9
Ni    -1.86326858    0.01300829    1.80309961      10
Ni    -0.12421410    0.02190931   -0.03043897      11
Cr     1.68859759   -1.69463113   -0.03401246      12
Cr     1.71764707    0.02682899   -1.77431404      13
Cr    -0.12093129    1.76027784   -1.82189388      14
Co    -0.10113691   -1.71815406   -1.76831163      15
Cr    -1.87905726    1.72514741   -0.08086616      16
Cr    -1.87345289   -1.75076477   -0.02888229      17
Co     1.72635756    0.01690234    1.75009887      18
