          18
Lattice="  24.8920   0.0000   0.0000   0.0000  24.8920   0.0000   0.0000   0.0000  24.8920 " ConfE="      -5949.7372" DelE="          0.0000"
Co    -0.01106574   -0.00278778   -3.46391196       1
Cr     3.42378574    0.08885525    0.01891656       2
Cr    -0.06416330    0.00166585    3.58514669       3
Cr    -3.60388986   -0.04974946    0.00967863       4
Ni    -0.03433592   -3.54128230    0.04324630       5
Cr     0.01672606    3.55263688   -0.00370950       6
Cr     0.04800240   -1.72602531   -1.78180045       7
Ni    -0.00247676    1.75910604   -1.74196389       8
Cr     1.71455315   -1.71619700    0.02212809       9
Co     1.75532659    1.73720670    0.05192320      10
Cr    -1.84041533   -0.03243416   -1.74093652      11
Co     1.72805303    0.00302395    1.86563955      12
Ni    -1.81871049   -0.01645535    1.80785481      13
Co    -1.81025030   -1.77309379    0.00451204      14
Ni    -1.80677074    1.76930722    0.01679402      15
Co    -0.04814521   -1.75079104    1.82141043      16
Cr    -0.05083999    1.76128536    1.82204777      17
Ni     0.00000000    0.00000000    0.00000000      18
          18
Lattice="  24.8920   0.0000   0.0000   0.0000  24.8920   0.0000   0.0000   0.0000  24.8920 " ConfE="      -5949.2870" DelE="          0.4501"
Co    -0.00704132    0.01738821   -3.45519677       1
Cr     3.42356823    0.07655481   -0.00043379       2
Cr    -0.04318252   -0.00395924    3.57830556       3
Cr    -3.58695999   -0.04659370   -0.00234096       4
Ni    -0.05495983   -3.61411788    0.05273518       5
Cr     0.00278624    3.62684632    0.02080522       6
Cr    -0.04060260   -1.92238724   -1.84077690       7
Ni    -0.06441484    1.93287299   -1.76835765       8
Cr     1.72638351   -1.90575974    0.10047545       9
Co     1.73527007    1.92670218    0.10221470      10
Cr    -1.70372294   -0.05550443   -1.68934364      11
Co     1.70902629   -0.00381038    1.74876014      12
Ni    -1.76595510   -0.01953737    1.77108256      13
Co    -1.74928113   -1.75898580   -0.01946545      14
Ni    -1.74278501    1.74229527    0.02211294      15
Co    -0.01618595   -1.73657916    1.75114588      16
Cr     0.01195235    1.71915811    1.77758005      17
Ni     0.95792318   -0.02026324   -0.99578925      18
          18
Lattice="  24.8920   0.0000   0.0000   0.0000  24.8920   0.0000   0.0000   0.0000  24.8920 " ConfE="      -5949.7911" DelE="         -0.0540"
Co    -0.03887229    0.00445806   -3.52718375       1
Cr     3.49170382    0.09124430    0.06536703       2
Cr    -0.07524509    0.00409185    3.60316577       3
Cr    -3.62593109   -0.04525328    0.01357316       4
Ni    -0.04556380   -3.57425585    0.05252796       5
Cr     0.00391632    3.58152314    0.00317298       6
Cr    -0.03488175   -1.72897079   -1.69944552       7
Ni    -0.04274020    1.75383268   -1.71527876       8
Cr     1.62406085   -1.68827212    0.08174187       9
Co     1.70380265    1.74470193    0.08913582      10
Cr    -1.78671972   -0.04129819   -1.71101346      11
Co     1.70268208    0.00335055    1.80613949      12
Ni    -1.79744505   -0.01410732    1.79065520      13
Co    -1.78086356   -1.73929427   -0.00154281      14
Ni    -1.77219298    1.72848156    0.02924321      15
Co    -0.03612637   -1.71839875    1.76213310      16
Cr    -0.03465739    1.72481141    1.80085246      17
Ni     1.69793414    0.00373642   -1.69433479      18
