          19
Lattice="  24.8920   0.0000   0.0000   0.0000  24.8920   0.0000   0.0000   0.0000  24.8920 " ConfE="      -5925.5816" DelE="          0.0000"
Co     3.58676484    0.00049943    0.00928866       1
Cr     1.76653434   -2.88298157   -1.21246665       2
Cr     0.00166022    0.08816744    3.56456506       3
Cr    -0.13779070   -3.40752090    0.02217651       4
Ni     0.02267910    3.58192992    0.03569321       5
Co     0.05598088    0.04460877   -3.53515120       6
Co    -3.58576087    0.10350231    0.00389998       7
Ni     1.77984279    0.05724351    1.75506802       8
Ni     0.03073606   -1.69972061    1.78407849       9
Co     1.79455042    1.82000045   -0.01765855      10
Co     1.83302784   -0.13859954   -1.66296109      11
Co    -0.01162324    1.83307891    1.80621611      12
Co    -1.77824836    0.05896724    1.80617611      13
Cr    -1.83579575   -1.61104811   -0.00179452      14
Ni     0.00996964    1.80566827   -1.74267941      15
Co    -0.12865753   -1.68608446   -1.79085897      16
Ni    -1.77219064    1.84238798    0.01823806      17
Co    -1.81940268    0.06602931   -1.79607040      18
Co     0.00000000    0.00000000    0.00000000      19
          19
Lattice="  24.8920   0.0000   0.0000   0.0000  24.8920   0.0000   0.0000   0.0000  24.8920 " ConfE="      -5925.0214" DelE="          0.5601"
Co     3.53590318   -0.00195028    0.00682535       1
Cr     1.75247268   -2.85402323   -1.22080196       2
Cr    -0.01675771    0.12687216    3.64485844       3
Cr    -0.12304719   -3.33096481    0.06189602       4
Ni     0.03483111    3.57426232    0.03633466       5
Co     0.04818472    0.04864528   -3.58385325       6
Co    -3.58196081    0.09450392    0.00583857       7
Ni     1.77913426    0.07326419    1.88710946       8
Ni    -0.03160313   -1.73729570    2.01034746       9
Co     1.76704120    1.75276558   -0.00273614      10
Co     1.87855503   -0.07208979   -1.83648291      11
Co    -0.00331274    1.82377211    1.82161198      12
Co    -1.72659050    0.04111695    1.77755069      13
Cr    -1.77912743   -1.58498091    0.01030182      14
Ni     0.03131868    1.74413892   -1.71692374      15
Co    -0.14891934   -1.74724787   -1.96159093      16
Ni    -1.72927880    1.80456015    0.02753514      17
Co    -1.75907603    0.02693396   -1.74544907      18
Co     0.56537441   -0.68515976   -0.02694241      19
          19
Lattice="  24.8920   0.0000   0.0000   0.0000  24.8920   0.0000   0.0000   0.0000  24.8920 " ConfE="      -5926.0638" DelE="         -0.4822"
Co     3.58798376    0.05870931    0.00161869       1
Cr     1.78028097   -3.46988098   -1.75223750       2
Cr    -0.00574549    0.10313643    3.60618102       3
Cr    -0.02308799   -3.46660973   -0.00800010       4
Ni     0.02223604    3.60607724    0.04209249       5
Co     0.04028455    0.04936361   -3.55294042       6
Co    -3.57740297    0.09311646   -0.00636219       7
Ni     1.73573248    0.09755356    1.75231123       8
Ni     0.00307564   -1.67338719    1.81133291       9
Co     1.78075868    1.83765203   -0.00531020      10
Co     1.79721614    0.04046848   -1.73138631      11
Co    -0.01843970    1.84763849    1.81019561      12
Co    -1.74337702    0.06322414    1.77254640      13
Cr    -1.69559726   -1.60819389   -0.05076376      14
Ni     0.00298168    1.80264773   -1.71372348      15
Co    -0.02148393   -1.68541796   -1.75419756      16
Ni    -1.74477889    1.82598292    0.02042338      17
Co    -1.77083770    0.03607841   -1.75234678      18
Co     1.73354133   -1.69445126    0.00745871      19
