          18
Lattice="  24.8920   0.0000   0.0000   0.0000  24.8920   0.0000   0.0000   0.0000  24.8920 " ConfE="      -5939.4497" DelE="          0.0000"
Cr    -3.56786760    0.00949580    0.00317475       1
Co    -0.05912850   -3.45458995   -0.02173146       2
Cr     3.59943303    0.06178901   -0.05287091       3
Ni    -0.00407723    3.60762075    0.01907608       4
Co     0.03036888    0.00704080   -3.54880022       5
Co     0.03225474    0.07554515    3.60682734       6
Ni    -1.73593039    0.00345957   -1.71021710       7
Ni    -1.74564432    0.03230825    1.75710276       8
Cr    -0.02824544   -1.76856022   -1.73576868       9
Ni     0.00331332   -1.72648334    1.77057099      10
Ni    -1.76323868    1.81923865    0.03042330      11
Ni     1.79416281   -1.72107660   -0.00222320      12
Ni     1.76691917    1.81979994    0.03403147      13
Ni     0.01618308    1.80745312   -1.76710618      14
Co     0.00382070    1.83206687    1.84672109      15
Co     1.81065957    0.03633286   -1.76481294      16
Ni     1.79591893    0.06228578    1.78815313      17
Co     0.00000000    0.00000000    0.00000000      18
          18
Lattice="  24.8920   0.0000   0.0000   0.0000  24.8920   0.0000   0.0000   0.0000  24.8920 " ConfE="      -5939.0135" DelE="          0.4362"
Cr    -3.50930340   -0.02660813    0.00141524       1
Co    -0.06920426   -3.42468337   -0.01261436       2
Cr     3.60220692    0.05456431   -0.04403211       3
Ni    -0.01631747    3.60633223    0.02216061       4
Co     0.03330538    0.02143798   -3.60091694       5
Co     0.05131674    0.08075602    3.66560908       6
Ni    -1.80222605    0.06844577   -1.89315894       7
Ni    -1.72263002    0.03823837    1.84861466       8
Cr     0.01454264   -1.80673544   -1.93179445       9
Ni     0.03946225   -1.78183480    1.92351359      10
Ni    -1.73407910    1.74507476    0.02321851      11
Ni     1.74931218   -1.70747899    0.00476840      12
Ni     1.71304259    1.77866683    0.04529596      13
Ni    -0.00186481    1.77694579   -1.76178445      14
Co     0.00160446    1.83285605    1.87451767      15
Co     1.73382348    0.01543534   -1.73436556      16
Ni     1.74937712    0.04372347    1.78280238      17
Co    -0.57000608   -0.74953289   -0.10729176      18
          18
Lattice="  24.8920   0.0000   0.0000   0.0000  24.8920   0.0000   0.0000   0.0000  24.8920 " ConfE="      -5940.0901" DelE="         -0.6404"
Cr    -3.60070696    0.07156004   -0.00382703       1
Co    -0.01315849   -3.50989205    0.00486056       2
Cr     3.61993786    0.07134073   -0.05307667       3
Ni    -0.00299020    3.62577773    0.02470155       4
Co     0.03648305    0.01460320   -3.57392148       5
Co     0.03633990    0.08384145    3.62553260       6
Ni    -1.68810592    0.04173845   -1.71693407       7
Ni    -1.72198948    0.05893691    1.76324159       8
Cr    -0.01057728   -1.75927729   -1.76103903       9
Ni     0.00770573   -1.69077149    1.75718622      10
Ni    -1.73414004    1.79679885    0.03980832      11
Ni     1.73071626   -1.66954739   -0.00959755      12
Ni     1.74471155    1.80565945    0.04416871      13
Ni     0.02548843    1.79695562   -1.74616580      14
Co     0.00915355    1.84450517    1.86184511      15
Co     1.78860137    0.04258792   -1.75317471      16
Ni     1.77901865    0.07340115    1.77804461      17
Co    -1.77381964   -1.70777782   -0.01825824      18
