          19
Lattice="  24.8920   0.0000   0.0000   0.0000  24.8920   0.0000   0.0000   0.0000  24.8920 " ConfE="      -5945.0597" DelE="          0.0000"
Ni    -2.45696801    2.54698424   -0.03863675       1
Cr     0.10572502   -3.61026669    0.04272162       2
Cr     3.56602869   -0.01373781   -0.05305551       3
Cr     0.02844321    3.42019045    0.03813062       4
Cr    -3.43266730    0.07998590   -0.00060944       5
Co     0.03810693    0.04959069   -3.56811183       6
Ni     0.01840533   -0.03651521    3.52077416       7
Ni    -1.74483757   -0.02084426   -1.79224845       8
Co    -1.76540957   -0.01247697    1.73903219       9
Co    -0.02985069    1.80197251   -1.71213771      10
Cr     0.01882049    1.70963903    1.76470049      11
Ni     1.79464900   -1.79195519   -0.04138377      12
Ni     0.03725176   -1.79940633   -1.80076683      13
Co     0.08043561   -1.83412504    1.77699282      14
Co     1.82729951    0.03339268   -1.81424403      15
Co     1.84007346   -0.05937728    1.76493904      16
Ni    -1.73310924   -1.83184770   -0.00348353      17
Cr     1.84195297    1.71680338    0.00471071      18
Ni     0.00000000    0.00000000    0.00000000      19
          19
Lattice="  24.8920   0.0000   0.0000   0.0000  24.8920   0.0000   0.0000   0.0000  24.8920 " ConfE="      -5944.6792" DelE="          0.3805"
Ni    -2.82131201    2.87157584   -0.05788467       1
Cr     0.10207462   -3.61512409    0.03779282       2
Cr     3.58071160   -0.00453964   -0.05393127       3
Cr    -0.06835380    3.29502498   -0.01494227       4
Cr    -3.37641455    0.12549394   -0.00289486       5
Co     0.04595992    0.02153840   -3.62339938       6
Ni     0.02495721   -0.03723968    3.55723030       7
Ni    -1.76151037   -0.01894357   -1.89445347       8
Co    -1.82428669   -0.03636824    1.89015276       9
Co     0.01280015    1.80681317   -1.93033559      10
Cr     0.04654638    1.78531430    1.92324643      11
Ni     1.77122078   -1.75911092   -0.04311072      12
Ni     0.03279371   -1.76698522   -1.79449199      13
Co     0.07169422   -1.78743447    1.76870721      14
Co     1.79213525    0.04489212   -1.79935389      15
Co     1.77889482   -0.01220562    1.71945414      16
Ni    -1.69878333   -1.76178108    0.00026287      17
Cr     1.80157122    1.68781671   -0.03586097      18
Ni    -0.48899126    0.54060203    0.03762866      19
          19
Lattice="  24.8920   0.0000   0.0000   0.0000  24.8920   0.0000   0.0000   0.0000  24.8920 " ConfE="      -5945.1317" DelE="         -0.0720"
Ni    -3.42909400    3.48945668   -0.00767332       1
Cr     0.10628591   -3.60235820    0.03362015       2
Cr     3.57905506   -0.01038582   -0.05830738       3
Cr     0.00247918    3.35667130    0.01659121       4
Cr    -3.38880247    0.06774512   -0.00339792       5
Co     0.04491249    0.01381325   -3.63862729       6
Ni     0.03550710   -0.05511810    3.58269648       7
Ni    -1.76314781   -0.04882914   -1.93547529       8
Co    -1.80142542   -0.06604097    1.91897192       9
Co     0.05886397    1.80044274   -1.98260512      10
Cr     0.11851660    1.72527269    1.93432929      11
Ni     1.74227277   -1.72652393   -0.04752014      12
Ni     0.03798642   -1.78169297   -1.82505783      13
Co     0.08496995   -1.80042023    1.78877708      14
Co     1.79784554    0.03653564   -1.81525095      15
Co     1.79960591   -0.03240849    1.74842607      16
Ni    -1.66798066   -1.74016592   -0.00719181      17
Cr     1.76998314    1.63642902   -0.04530614      18
Ni    -0.72733395    0.77654760    0.00677179      19
