          18
Lattice="  24.8920   0.0000   0.0000   0.0000  24.8920   0.0000   0.0000   0.0000  24.8920 " ConfE="      -5934.2385" DelE="          0.0000"
Ni    -3.58409388    0.00121870    0.02291192       1
Ni    -0.04124097   -0.01091567    3.56265768       2
Co     0.10989096   -0.04115691   -3.52944574       3
Co     3.50987804    0.01894536    0.00973715       4
Ni    -0.02788499   -3.57445346    0.00734937       5
Co    -0.01777118    3.51590137    0.02574085       6
Ni     0.01593469   -1.77578609   -1.75727893       7
Ni     1.74986791   -1.76954359   -0.02372586       8
Ni    -0.01456011    1.76061015    1.76732178       9
Co     0.08690673    1.73308166   -1.76040187      10
Cr     1.80690201    1.68753688   -0.10529879      11
Ni    -1.79934909   -0.02155869   -1.74165757      12
Ni     1.74673861   -0.00739946    1.80121573      13
Cr    -1.77569859    1.73685594    0.03236177      14
Co    -1.82432096    0.00566114    1.79804342      15
Co    -1.81558383   -1.81994208    0.04711110      16
Co    -0.07060272   -1.82840774    1.82030505      17
Ni     0.00000000    0.00000000    0.00000000      18
          18
Lattice="  24.8920   0.0000   0.0000   0.0000  24.8920   0.0000   0.0000   0.0000  24.8920 " ConfE="      -5933.5745" DelE="          0.6641"
Ni    -3.59271087    0.00451803    0.00829194       1
Ni    -0.02965230   -0.00556216    3.53911941       2
Co     0.06846327   -0.03991891   -3.48544753       3
Co     3.52899401   -0.01146578    0.02002038       4
Ni    -0.03242687   -3.65442386    0.02680401       5
Co    -0.03192429    3.58880561    0.04175824       6
Ni    -0.05840437   -1.90264746   -1.73253387       7
Ni     1.78255939   -1.93497679    0.02496257       8
Ni    -0.01501715    1.75627845    1.72401363       9
Co    -0.03768456    1.92979940   -1.78156223      10
Cr     1.84745034    1.89959773    0.03120020      11
Ni    -1.71847835   -0.01680081   -1.68363752      12
Ni     1.70133772   -0.01927944    1.69670846      13
Cr    -1.73690140    1.70904875    0.03893614      14
Co    -1.78556112    0.02029093    1.72939467      15
Co    -1.79270780   -1.81401598    0.05862840      16
Co    -0.05695007   -1.82037684    1.77623608      17
Ni     0.97158874    0.04210128   -0.92494389      18
          18
Lattice="  24.8920   0.0000   0.0000   0.0000  24.8920   0.0000   0.0000   0.0000  24.8920 " ConfE="      -5934.3400" DelE="         -0.1015"
Ni    -3.60050777   -0.00078514    0.02192996       1
Ni    -0.04110554   -0.00977678    3.57227951       2
Co     0.05038342   -0.04040470   -3.57549540       3
Co     3.56940669   -0.00728811    0.04973137       4
Ni    -0.03013238   -3.60118972    0.01719046       5
Co    -0.02857304    3.56304599    0.04323820       6
Ni    -0.03160676   -1.78139493   -1.71490454       7
Ni     1.72324367   -1.78363647    0.01453078       8
Ni    -0.02452598    1.73458032    1.73712537       9
Co     0.03694548    1.74549443   -1.69815632      10
Cr     1.74268801    1.72165058   -0.04535098      11
Ni    -1.75725493   -0.02005364   -1.69611703      12
Ni     1.70701365   -0.00949952    1.74653169      13
Cr    -1.73267373    1.69375434    0.05056378      14
Co    -1.80695614    0.00668545    1.76322366      15
Co    -1.80380002   -1.80851592    0.06785618      16
Co    -0.08197512   -1.82355422    1.81547143      17
Ni     1.74375334   -0.03073448   -1.73632265      18
