          18
Lattice="  24.8920   0.0000   0.0000   0.0000  24.8920   0.0000   0.0000   0.0000  24.8920 " ConfE="      -5938.6815" DelE="          0.0000"
Ni     3.49642146    0.03063904    0.01086594       1
Ni     0.04722665   -3.56295192    0.01951360       2
Ni    -3.51264891   -0.00482089    0.00909330       3
Co     0.01489021   -0.05613481    3.51108822       4
Cr     0.01037353    3.59453342   -0.05046259       5
Co     0.03572720   -0.01081468   -3.59431508       6
Ni     0.03337529    1.76773311    1.75833208       7
Ni     1.77480996   -1.73390617    0.06018164       8
Co     1.72219093    1.81600394   -0.05200608       9
Ni     0.04030481   -1.80026283   -1.77155779      10
Ni    -1.75648125   -0.02654708    1.77891790      11
Co    -0.01172689   -1.76327916    1.78829030      12
Co     1.74864664    0.02061139   -1.80874322      13
Cr     0.06469492    1.75653015   -1.74724674      14
Co    -1.76184574    1.78004708   -0.02487723      15
Cr    -1.69816454   -0.00370644   -1.77569961      16
Cr    -1.68305845   -1.78927889    0.03528119      17
Co     0.00000000    0.00000000    0.00000000      18
          18
Lattice="  24.8920   0.0000   0.0000   0.0000  24.8920   0.0000   0.0000   0.0000  24.8920 " ConfE="      -5937.6369" DelE="          1.0446"
Ni     3.46903603    0.02259171    0.00575530       1
Ni     0.04060254   -3.62317645    0.00879714       2
Ni    -3.51507922   -0.00366349    0.01686262       3
Co     0.03631147   -0.04647854    3.45141221       4
Cr    -0.01481728    3.71051426   -0.06450954       5
Co     0.04802461   -0.01037276   -3.57354403       6
Ni    -0.02606052    1.91366457    1.77813992       7
Ni     1.83678578   -1.92634944   -0.02031400       8
Co     1.73356660    1.94454931   -0.07757169       9
Ni     0.04792414   -1.80298244   -1.72597341      10
Ni    -1.68340252   -0.02750725    1.72925353      11
Co    -0.04748616   -1.89334274    1.78936267      12
Co     1.69423777    0.03215017   -1.70619441      13
Cr     0.08361582    1.75535504   -1.68889959      14
Co    -1.72254588    1.77136932   -0.02969940      15
Cr    -1.61216143   -0.00633537   -1.66144381      16
Cr    -1.65162314   -1.79335821    0.04826136      17
Co     0.91935798   -0.00995311    0.87472457      18
          18
Lattice="  24.8920   0.0000   0.0000   0.0000  24.8920   0.0000   0.0000   0.0000  24.8920 " ConfE="      -5938.3828" DelE="          0.2987"
Ni     3.53302308    0.03327356   -0.00548105       1
Ni     0.04412120   -3.58290599    0.01470464       2
Ni    -3.52679024   -0.00219626    0.01345999       3
Co    -0.00175037   -0.06164424    3.54746314       4
Cr     0.00179885    3.65087626   -0.05535949       5
Co     0.03592570   -0.01117937   -3.60161141       6
Ni     0.01357982    1.77833620    1.73594524       7
Ni     1.75797930   -1.73267021    0.03147421       8
Co     1.68847316    1.79079328   -0.05406799       9
Ni     0.02341433   -1.77111148   -1.73756963      10
Ni    -1.70949789   -0.02932579    1.74172836      11
Co    -0.02530871   -1.76887090    1.75334775      12
Co     1.71098976    0.03302830   -1.76036639      13
Cr     0.06312740    1.74471858   -1.73243451      14
Co    -1.71860400    1.74230286   -0.04700269      15
Cr    -1.67788874    0.00086238   -1.73447130      16
Cr    -1.68403617   -1.78088136    0.03829408      17
Co     1.74982543    0.00719323    1.79646154      18
