          18
Lattice="  24.8920   0.0000   0.0000   0.0000  24.8920   0.0000   0.0000   0.0000  24.8920 " ConfE="      -5923.9218" DelE="          0.0000"
Co    -3.50119130   -0.05807203   -0.06768356       1
Ni     0.00227904    3.44725254    0.00736758       2
Cr     3.55112739   -0.08666327    0.05155349       3
Cr     0.08463562   -3.51988334   -0.00502465       4
Ni     0.01403632   -0.03553106   -3.55875719       5
Cr     0.09112108   -0.10317187    3.50719458       6
Cr    -1.77224475   -0.09226599   -1.73175563       7
Ni    -1.75010978    0.01091635    1.73987417       8
Ni     0.01384052    1.69755426   -1.76286706       9
Cr     0.04407626    1.69918283    1.77276886      10
Co    -1.75052324   -1.82024188   -0.01538660      11
Cr     1.84483985    1.71476893    0.06327015      12
Co     1.80823144   -1.77176984   -0.01567863      13
Cr     0.10166306   -1.81164537   -1.75776213      14
Co     0.02234645   -1.80093399    1.76285839      15
Co     1.81855056   -0.02701098   -1.78756942      16
Co     1.79622208   -0.02951909    1.76604369      17
Ni     0.00000000    0.00000000    0.00000000      18
          18
Lattice="  24.8920   0.0000   0.0000   0.0000  24.8920   0.0000   0.0000   0.0000  24.8920 " ConfE="      -5923.1941" DelE="          0.7277"
Co    -3.51065274   -0.06504104   -0.05385619       1
Ni     0.00512715    3.44819335   -0.00861117       2
Cr     3.55279571   -0.07647405    0.04429619       3
Cr     0.07473037   -3.52151628   -0.00061045       4
Ni     0.03089900   -0.04553264   -3.62996612       5
Cr     0.09366155   -0.14244564    3.57338805       6
Cr    -1.71628645   -0.15670639   -1.86321366       7
Ni    -1.76649726   -0.06888910    1.86833508       8
Ni     0.08789125    1.74986406   -1.95439976       9
Cr     0.09571735    1.68154673    1.89805665      10
Co    -1.71213545   -1.74196118   -0.03204750      11
Cr     1.72728162    1.65992433    0.04840712      12
Co     1.75075371   -1.72532154   -0.02290618      13
Cr     0.11139582   -1.74005975   -1.71507060      14
Co     0.01145411   -1.76597635    1.73082857      15
Co     1.76358640   -0.01669151   -1.76688860      16
Co     1.72776913   -0.00024604    1.72597696      17
Ni    -1.05610221    1.11350160   -0.01515462      18
          18
Lattice="  24.8920   0.0000   0.0000   0.0000  24.8920   0.0000   0.0000   0.0000  24.8920 " ConfE="      -5923.6772" DelE="          0.2446"
Co    -3.56169656   -0.09473997   -0.05666008       1
Ni     0.02716838    3.49240046    0.00838344       2
Cr     3.57554904   -0.08839874    0.04766330       3
Cr     0.08208828   -3.53091822    0.00029515       4
Ni     0.02985339   -0.03871466   -3.58357890       5
Cr     0.09605003   -0.13461709    3.54566391       6
Cr    -1.68768168   -0.14219664   -1.74686075       7
Ni    -1.72417562   -0.03891817    1.76100916       8
Ni     0.04852949    1.65305767   -1.73703931       9
Cr     0.07216240    1.63324533    1.74374759      10
Co    -1.70669101   -1.74570056   -0.04814291      11
Cr     1.79598614    1.67063170    0.07118957      12
Co     1.76361327   -1.73967943   -0.02693159      13
Cr     0.13461920   -1.78272735   -1.72429710      14
Co     0.02297298   -1.77883648    1.72599043      15
Co     1.80476365   -0.04103749   -1.77105122      16
Co     1.74833077   -0.01155930    1.71642981      17
Ni    -1.70542747    1.64880953    0.00247557      18
