          18
Lattice="  24.8920   0.0000   0.0000   0.0000  24.8920   0.0000   0.0000   0.0000  24.8920 " ConfE="      -5925.3963" DelE="          0.0000"
Ni    -3.45132658    0.01967914    0.05535932       1
Ni     0.01302331   -0.02027586    3.52397224       2
Ni     3.60521590   -0.03379141    0.05202932       3
Ni     0.07521239   -3.57257540    0.04828377       4
Ni     0.06445089    3.53106029    0.03270169       5
Co     0.05578679    0.01700160   -3.47782865       6
Ni     1.84254266   -0.02034981   -1.73587276       7
Cr    -1.70178030   -1.78203542   -0.00007595       8
Cr    -1.68745027    1.75261752    0.00697458       9
Cr    -0.01986583   -1.72906836    1.75755909      10
Cr     0.01881781    1.70394396    1.74642866      11
Ni     1.82963971   -1.80919218    0.04279359      12
Ni     1.82272528    1.75467147    0.04822380      13
Co    -1.75256037    0.01712631   -1.77584389      14
Co     0.02507694   -1.77287087   -1.72480977      15
Cr     0.05628563    1.76484777   -1.76585697      16
Co     1.78869863   -0.00753687    1.79043034      17
Cr     0.00000000    0.00000000    0.00000000      18
          18
Lattice="  24.8920   0.0000   0.0000   0.0000  24.8920   0.0000   0.0000   0.0000  24.8920 " ConfE="      -5924.8135" DelE="          0.5828"
Ni    -3.46337259    0.02234968    0.03293433       1
Ni     0.02398948   -0.02985859    3.54719891       2
Ni     3.59414573   -0.03404642    0.05890438       3
Ni     0.09869453   -3.63148541    0.03856969       4
Ni     0.07099106    3.56805580    0.01854137       5
Co     0.04651229    0.01363256   -3.49181312       6
Ni     1.80913822   -0.01771251   -1.71789974       7
Cr    -1.70719965   -1.90009518   -0.11766117       8
Cr    -1.71100011    1.89415876   -0.07841919       9
Cr     0.07448490   -1.91127460    1.82833357      10
Cr     0.13824537    1.86576874    1.85280542      11
Ni     1.78254112   -1.79432639    0.05566579      12
Ni     1.74610153    1.71715242    0.03806958      13
Co    -1.65303860    0.06509778   -1.62429249      14
Co     0.01361544   -1.74397938   -1.66637315      15
Cr     0.05464407    1.74981013   -1.74116345      16
Co     1.67402387   -0.01010869    1.75985036      17
Cr    -1.06120422   -0.01922282    1.13294649      18
          18
Lattice="  24.8920   0.0000   0.0000   0.0000  24.8920   0.0000   0.0000   0.0000  24.8920 " ConfE="      -5925.1024" DelE="          0.2939"
Ni    -3.52409385    0.02802219    0.01492879       1
Ni     0.03930539   -0.02494380    3.59451342       2
Ni     3.60450504   -0.03305507    0.05542582       3
Ni     0.09537967   -3.60397671    0.04011326       4
Ni     0.07146514    3.55435815    0.02338427       5
Co     0.05336679    0.01119769   -3.50524673       6
Ni     1.81212063   -0.01683898   -1.71947628       7
Cr    -1.66253016   -1.76978482   -0.07055703       8
Cr    -1.62935087    1.73329153   -0.03582668       9
Cr     0.04770687   -1.73777221    1.73673582      10
Cr     0.06532190    1.70606934    1.73545219      11
Ni     1.82487564   -1.80775159    0.03490435      12
Ni     1.78394259    1.72626942    0.03568621      13
Co    -1.68977447    0.04652454   -1.67551120      14
Co     0.02224131   -1.74914051   -1.68949039      15
Cr     0.07830038    1.76111882   -1.76052484      16
Co     1.71573393   -0.01229974    1.77561349      17
Cr    -1.62389232   -0.01314932    1.66900527      18
