          18
Lattice="  24.8920   0.0000   0.0000   0.0000  24.8920   0.0000   0.0000   0.0000  24.8920 " ConfE="      -5938.2385" DelE="          0.0000"
Ni    -0.02669516   -0.00786445   -3.62466422       1
Ni    -3.58699094   -0.04414303   -0.03612510       2
Co     0.00796660    3.50112436   -0.05013189       3
Cr     0.01548332   -0.03579763    3.45782914       4
Co    -0.03177699   -3.58468172   -0.12005938       5
Cr     3.54096125   -0.11718578   -0.10578062       6
Ni     1.75898618    1.74751222   -0.00648127       7
Ni     1.76990416   -0.01470677    1.73306012       8
Co    -1.77315640    1.70641236   -0.04815956       9
Cr    -1.75054577   -0.01342771    1.75134142      10
Cr    -1.78411475   -0.03813386   -1.81852899      11
Cr    -0.06294433    1.80421229   -1.81059305      12
Cr    -0.04548943   -1.82057047   -1.83194063      13
Cr    -1.82545130   -1.78566080   -0.05913794      14
Co     1.70376891   -0.04737436   -1.82018188      15
Co    -0.04941446   -1.84199292    1.68364072      16
Cr     1.74678515   -1.83464651   -0.06067699      17
Ni     0.00000000    0.00000000    0.00000000      18
          18
Lattice="  24.8920   0.0000   0.0000   0.0000  24.8920   0.0000   0.0000   0.0000  24.8920 " ConfE="      -5937.5743" DelE="          0.6641"
Ni    -0.02559743    0.00459049   -3.63252735       1
Ni    -3.65753168   -0.06125140   -0.05888637       2
Co    -0.00451989    3.45709577   -0.03511105       3
Cr     0.05932840   -0.02725538    3.44598851       4
Co    -0.03003303   -3.58988366   -0.11603762       5
Cr     3.63296266   -0.16259896   -0.15261499       6
Ni     1.89735972    1.74660203   -0.03503710       7
Ni     1.95833524   -0.04141360    1.73381084       8
Co    -1.94768206    1.73755275   -0.12949371       9
Cr    -1.94992793   -0.11037660    1.76628039      10
Cr    -1.77234424   -0.00607359   -1.76852463      11
Cr    -0.02663476    1.69566546   -1.70285482      12
Cr    -0.02733332   -1.69302696   -1.73894412      13
Cr    -1.78354062   -1.72972940   -0.04632735      14
Co     1.67278193   -0.04217307   -1.75929127      15
Co    -0.01578203   -1.71440840    1.60845016      16
Cr     1.71808534   -1.78585873   -0.04140743      17
Ni    -0.06937263    0.94389319    1.01207552      18
          18
Lattice="  24.8920   0.0000   0.0000   0.0000  24.8920   0.0000   0.0000   0.0000  24.8920 " ConfE="      -5938.1314" DelE="          0.1071"
Ni    -0.02858282   -0.01283234   -3.65295893       1
Ni    -3.59820205   -0.04913100   -0.03461759       2
Co     0.00138845    3.54708192   -0.07415803       3
Cr     0.05236523   -0.09730166    3.53115363       4
Co    -0.03193816   -3.61180827   -0.11857981       5
Cr     3.57061643   -0.12948125   -0.11676861       6
Ni     1.74595130    1.71492613   -0.04828221       7
Ni     1.77091751   -0.03609965    1.69182450       8
Co    -1.71857170    1.64429672   -0.06828634       9
Cr    -1.72349068   -0.07397100    1.70484784      10
Cr    -1.75082336   -0.03975379   -1.77501525      11
Cr    -0.07007707    1.73349388   -1.77835088      12
Cr    -0.03343055   -1.77563908   -1.80323838      13
Cr    -1.77016674   -1.76561331   -0.05460914      14
Co     1.64662837   -0.06499707   -1.77455501      15
Co    -0.03953751   -1.76043639    1.61239384      16
Cr     1.70509684   -1.80975345   -0.07894610      17
Ni     0.00588188    1.72028739    1.73368934      18
