          18
Lattice="  24.8920   0.0000   0.0000   0.0000  24.8920   0.0000   0.0000   0.0000  24.8920 " ConfE="      -5940.7914" DelE="          0.0000"
Co     0.03779629    0.02455138   -3.44880258       1
Cr     3.48216647   -0.00151589   -0.03668426       2
Cr    -0.04098355   -0.02161851    3.57698174       3
Ni    -3.57155980    0.01107144    0.02920716       4
Co     0.00069757   -3.55958245    0.01508006       5
Co     0.00690260    3.61126727   -0.00177731       6
Cr     0.00444269   -1.76697928   -1.74052215       7
Cr    -0.00886158    1.79985156   -1.79597877       8
Cr     1.75850416   -1.72142033   -0.08299879       9
Ni     1.76546543    1.73922231   -0.04669002      10
Ni    -1.81725891   -0.00766909   -1.74624021      11
Ni     1.76928409   -0.00847478    1.82812419      12
Cr    -1.77306510    0.02928902    1.80197639      13
Cr    -1.76823698   -1.81126004   -0.00636348      14
Cr    -1.75435658    1.83531485   -0.03398416      15
Co    -0.03547674   -1.79061462    1.76513323      16
Cr    -0.00623638    1.80253784    1.75223151      17
Co     0.00000000    0.00000000    0.00000000      18
          18
Lattice="  24.8920   0.0000   0.0000   0.0000  24.8920   0.0000   0.0000   0.0000  24.8920 " ConfE="      -5940.0927" DelE="          0.6987"
Co     0.02551688    0.02979751   -3.49569482       1
Cr     3.34892581   -0.01411598   -0.11280247       2
Cr    -0.02470378   -0.01641267    3.61779479       3
Ni    -3.55009326    0.01435772    0.02461860       4
Co    -0.03232763   -3.60474452    0.02474750       5
Co    -0.00892670    3.65941912    0.01648939       6
Cr    -0.06437461   -1.93492380   -1.82107072       7
Cr    -0.02665303    2.02881719   -1.90051644       8
Cr     1.65266110   -1.80510849   -0.03536326       9
Ni     1.77355874    1.90137061    0.01387961      10
Ni    -1.75836514    0.01579984   -1.78263849      11
Ni     1.70412264    0.00840971    1.76162690      12
Cr    -1.69582781    0.07570999    1.76696163      13
Cr    -1.56693051   -1.61009359   -0.01365911      14
Cr    -1.62480309    1.71580524   -0.07648849      15
Co    -0.04784825   -1.78594662    1.77329310      16
Cr     0.00935626    1.81179252    1.73718744      17
Co     0.74012977    0.04386164   -1.02345187      18
          18
Lattice="  24.8920   0.0000   0.0000   0.0000  24.8920   0.0000   0.0000   0.0000  24.8920 " ConfE="      -5940.7357" DelE="          0.0557"
Co     0.00065704    0.03952936   -3.52743373       1
Cr     3.52827963    0.00025253    0.01071211       2
Cr    -0.03982260   -0.01149806    3.61230983       3
Ni    -3.57357068    0.00062661    0.03059941       4
Co    -0.01216474   -3.58078810    0.01490479       5
Co    -0.00133250    3.63735631    0.00931053       6
Cr     0.01425927   -1.74920631   -1.73937494       7
Cr    -0.02433478    1.77882252   -1.70037413       8
Cr     1.67260476   -1.72450166   -0.00666217       9
Ni     1.75796601    1.76691624    0.01823350      10
Ni    -1.75868153   -0.01263321   -1.71957205      11
Ni     1.73999747   -0.00155002    1.79933932      12
Cr    -1.73748735    0.02265289    1.77690452      13
Cr    -1.68639824   -1.76438988   -0.00161274      14
Cr    -1.74534951    1.79258061   -0.01422441      15
Co    -0.04729302   -1.74651328    1.73494369      16
Cr    -0.02599501    1.76155406    1.68829511      17
Co     1.71730608    0.03345129   -1.73937738      18
