          18
Lattice="  24.8920   0.0000   0.0000   0.0000  24.8920   0.0000   0.0000   0.0000  24.8920 " ConfE="      -5923.4115" DelE="          0.0000"
Cr     0.00381167    3.45550616    0.01726489       1
Co     3.49163405   -0.00885272    0.01860823       2
Ni    -0.03605056   -3.59878356    0.00116625       3
Ni    -3.60917229   -0.05586194    0.01452001       4
Cr    -0.02542902   -0.08325286   -3.45500763       5
Ni    -0.03636472   -0.05397291    3.55309129       6
Ni     0.00153524    1.70283413   -1.73597094       7
Cr     0.05663128    1.66912728    1.67417134       8
Cr     1.81937571    0.00515833   -1.62379200       9
Co     1.73305832    0.01295749    1.75612341      10
Co    -1.81786800    1.73766470   -0.00630444      11
Co     1.74088752   -1.78740810   -0.01060154      12
Cr    -1.78203164   -1.82749937   -0.06394097      13
Co    -1.81140402   -0.03213235   -1.76863662      14
Ni    -1.81904582   -0.06590050    1.75307444      15
Co    -0.02796397   -1.78702954   -1.73459253      16
Ni    -0.05063933   -1.80803392    1.75569612      17
Co     0.00000000    0.00000000    0.00000000      18
          18
Lattice="  24.8920   0.0000   0.0000   0.0000  24.8920   0.0000   0.0000   0.0000  24.8920 " ConfE="      -5922.8360" DelE="          0.5755"
Cr     0.01202537    3.37777786   -0.01839359       1
Co     3.42922062    0.01698573    0.03273361       2
Ni    -0.03651726   -3.59334000    0.00454596       3
Ni    -3.61851527   -0.04907657    0.01604588       4
Cr    -0.03832858   -0.10090494   -3.54156983       5
Ni    -0.04735102   -0.05563999    3.59749296       6
Ni    -0.09626133    1.72592157   -1.91573393       7
Cr    -0.04606435    1.76929633    1.85419378       8
Cr     1.83852285    0.00707674   -1.78540872       9
Co     1.81795621   -0.03616195    1.95622712      10
Co    -1.74174103    1.68718861   -0.02059852      11
Co     1.71242675   -1.71815636    0.00493393      12
Cr    -1.72695775   -1.75256758   -0.08489456      13
Co    -1.81153986   -0.05097461   -1.76458785      14
Ni    -1.79691754   -0.04870257    1.74901037      15
Co    -0.01957422   -1.73516177   -1.69783298      16
Ni    -0.03939493   -1.73939155    1.73376785      17
Co     0.74884914    0.72265922    0.03705242      18
          18
Lattice="  24.8920   0.0000   0.0000   0.0000  24.8920   0.0000   0.0000   0.0000  24.8920 " ConfE="      -5923.4131" DelE="         -0.0016"
Cr    -0.02862289    3.49957748   -0.00320774       1
Co     3.57562019   -0.04615348    0.03584063       2
Ni    -0.03881328   -3.61325299   -0.00098198       3
Ni    -3.62891043   -0.05959366    0.01808943       4
Cr    -0.03452599   -0.09369354   -3.50769031       5
Ni    -0.04596581   -0.05815388    3.57057812       6
Ni    -0.01830008    1.63242856   -1.72169829       7
Cr    -0.00426138    1.68392271    1.70127120       8
Cr     1.79748568   -0.05251414   -1.66550387       9
Co     1.70986691   -0.00717093    1.76425078      10
Co    -1.76932574    1.70129049    0.00256974      11
Co     1.71591811   -1.72097363   -0.02589850      12
Cr    -1.77639817   -1.82080773   -0.09220964      13
Co    -1.80305505   -0.06376897   -1.73506126      14
Ni    -1.79939609   -0.06956418    1.72264936      15
Co    -0.04209788   -1.76076347   -1.69763841      16
Ni    -0.06103719   -1.76932587    1.70673811      17
Co     1.74872148    1.66486062   -0.00805167      18
