          18
Lattice="  24.8920   0.0000   0.0000   0.0000  24.8920   0.0000   0.0000   0.0000  24.8920 " ConfE="      -5927.5556" DelE="          0.0000"
Ni    -3.54102286   -0.00912214    0.02404177       1
Ni    -0.04493108    3.54935280   -0.01843915       2
Ni    -0.02416071   -3.58652468    0.00718103       3
Ni    -0.02159980   -0.01851880   -3.55866500       4
Co     0.00793593   -0.00806864    3.52236654       5
Cr     3.52648339   -0.00451546   -0.02884993       6
Ni    -1.78269538    1.72875454    0.01615428       7
Ni    -0.04024423    1.74858548    1.75948600       8
Ni     1.75994670   -1.78758400   -0.01852034       9
Cr    -1.77024022   -1.71278788    0.10818239      10
Co    -0.00795118   -1.76400356    1.73366312      11
Ni    -0.02531246   -1.78150627   -1.76610951      12
Cr     1.78901257    0.00490950    1.74215959      13
Cr     1.70663057    1.75647230   -0.03616551      14
Co     1.80225101   -0.01904647   -1.78565287      15
Co    -1.81013064   -0.00410840   -1.81988136      16
Co    -0.00283548    1.76211113   -1.78388002      17
Co     0.00000000    0.00000000    0.00000000      18
          18
Lattice="  24.8920   0.0000   0.0000   0.0000  24.8920   0.0000   0.0000   0.0000  24.8920 " ConfE="      -5926.8810" DelE="          0.6746"
Ni    -3.51617978   -0.00356046    0.03333853       1
Ni    -0.03519469    3.60234148   -0.03561046       2
Ni    -0.01757088   -3.62876466   -0.00439361       3
Ni    -0.03118994   -0.01815414   -3.54720039       4
Co     0.02969382   -0.00028160    3.42490356       5
Cr     3.54929968   -0.01345894   -0.01094504       6
Ni    -1.81343884    1.85761052   -0.01761211       7
Ni    -0.00586978    1.90390190    1.77583880       8
Ni     1.72166064   -1.76554621   -0.00760004       9
Cr    -1.82534946   -1.86786084    0.07400396      10
Co     0.07911423   -1.97816212    1.80487867      11
Ni    -0.03769807   -1.76904103   -1.72814984      12
Cr     1.72680838    0.00597370    1.69698002      13
Cr     1.63842608    1.70961875   -0.05085050      14
Co     1.77125656   -0.00973999   -1.73671339      15
Co    -1.77711115   -0.01119812   -1.73960985      16
Co    -0.00699404    1.74069747   -1.73746088      17
Co    -0.71741479   -0.08441539    0.75290436      18
          18
Lattice="  24.8920   0.0000   0.0000   0.0000  24.8920   0.0000   0.0000   0.0000  24.8920 " ConfE="      -5927.7741" DelE="         -0.2185"
Ni    -3.58516658   -0.01082497   -0.02163363       1
Ni    -0.04056895    3.57365843   -0.03046376       2
Ni    -0.02066435   -3.60221248   -0.00118426       3
Ni    -0.02546357   -0.01439285   -3.56909442       4
Co    -0.01668609   -0.01876950    3.56389740       5
Cr     3.54432024   -0.01083320   -0.00538960       6
Ni    -1.76196051    1.72871500   -0.02007549       7
Ni    -0.02769376    1.75551179    1.72760924       8
Ni     1.71544047   -1.74416995   -0.01473055       9
Cr    -1.77307854   -1.74615073    0.04566904      10
Co    -0.03453292   -1.75973924    1.72764729      11
Ni    -0.03166179   -1.75269787   -1.74581320      12
Cr     1.70106592    0.00159837    1.72404956      13
Cr     1.67208026    1.70997107   -0.05807735      14
Co     1.78725984   -0.00482248   -1.75926446      15
Co    -1.80090684   -0.00638009   -1.79984079      16
Co     0.01186446    1.73561441   -1.75032638      17
Co    -1.80097115   -0.02216015    1.76604318      18
