          18
Lattice="  24.8920   0.0000   0.0000   0.0000  24.8920   0.0000   0.0000   0.0000  24.8920 " ConfE="      -5927.3196" DelE="          0.0000"
Ni    -0.00623755    3.63337075   -0.00891989       1
Cr    -3.58982595    0.04359227   -0.01282741       2
Cr    -0.03154496   -3.50569156   -0.06446367       3
Cr     3.52313455    0.07407683    0.00143532       4
Cr     0.00987092    0.03617127    3.54659255       5
Co    -0.01142928    0.03282166   -3.54034371       6
Ni    -0.02087070    1.83420584   -1.77385728       7
Ni     1.81777049   -1.75703271   -0.02371961       8
Cr    -1.72587177   -0.10532429    1.61276156       9
Cr    -1.71760721   -0.04719522   -1.61574989      10
Co    -0.05122000   -1.76300861   -1.75036753      11
Co     0.02485743   -1.75367262    1.73869015      12
Cr    -1.76898949    1.83290997    0.01208744      13
Co     1.76676401    1.81517728   -0.01110126      14
Co    -0.01847985    1.84353038    1.76157206      15
Cr     1.73269902    0.04943941    1.77247251      16
Cr     1.71857916    0.02613114   -1.77943242      17
Co     0.00000000    0.00000000    0.00000000      18
          18
Lattice="  24.8920   0.0000   0.0000   0.0000  24.8920   0.0000   0.0000   0.0000  24.8920 " ConfE="      -5926.9485" DelE="          0.3711"
Ni    -0.02085662    3.68133573   -0.01087275       1
Cr    -3.39975707    0.07897684   -0.00652267       2
Cr    -0.15162977   -3.48757418   -0.06307495       3
Cr     3.48244377    0.03758889   -0.03756374       4
Cr     0.05658885    0.04061203    3.62491254       5
Co     0.01439031    0.06196844   -3.58637229       6
Ni    -0.05033924    1.89750929   -1.80236222       7
Ni     1.71846156   -1.80484219    0.00825853       8
Cr    -1.70226608    0.04270765    1.93844712       9
Cr    -1.68490360    0.05052395   -1.87372675      10
Co    -0.04224335   -1.81842852   -1.84288582      11
Co     0.01808323   -1.84575203    1.86943231      12
Cr    -1.71968430    1.83793835    0.01303854      13
Co     1.69008142    1.81498366   -0.01687765      14
Co    -0.04562517    1.87637411    1.76429162      15
Cr     1.50648568    0.05826650    1.63134210      16
Cr     1.42112319    0.01788232   -1.52232857      17
Co    -0.66601170   -0.56157202    0.05079346      18
          18
Lattice="  24.8920   0.0000   0.0000   0.0000  24.8920   0.0000   0.0000   0.0000  24.8920 " ConfE="      -5927.8521" DelE="         -0.5325"
Ni    -0.00558547    3.69534522   -0.00961724       1
Cr    -3.57276350    0.06633746    0.00241389       2
Cr    -0.01221153   -3.60440764   -0.04545728       3
Cr     3.51170779    0.05397295   -0.01701379       4
Cr    -0.00425676    0.03951624    3.54808224       5
Co     0.00894914    0.05853481   -3.54991577       6
Ni    -0.01949663    1.89054707   -1.76571944       7
Ni     1.74252260   -1.76882479   -0.00896690       8
Cr    -1.51518583    0.07678431    1.52520241       9
Cr    -1.56439074    0.02987314   -1.56662705      10
Co    -0.02563931   -1.75494091   -1.76248869      11
Co    -0.00117762   -1.75937109    1.73741103      12
Cr    -1.76842662    1.88559653   -0.01709481      13
Co     1.72894288    1.81854440   -0.01479578      14
Co    -0.01138981    1.89702388    1.74244685      15
Cr     1.58276761    0.07715600    1.63380774      16
Cr     1.54616219    0.05182699   -1.57319571      17
Co    -1.76538701   -1.75518210   -0.00656554      18
