          18
Lattice="  24.8920   0.0000   0.0000   0.0000  24.8920   0.0000   0.0000   0.0000  24.8920 " ConfE="      -5926.0638" DelE="          0.0000"
Co    -3.47910950   -0.03432942    0.02023518       1
Co     0.06148367   -0.05708507   -3.48369754       2
Ni     3.63279550   -0.00653252    0.03446518       3
Cr     0.06927616   -3.56462829    0.04685232       4
Co     0.06156664   -0.00773455    3.57685679       5
Co     0.08393400    3.54956448    0.05937030       6
Ni    -1.73265684   -1.77094074    0.05902168       7
Co    -0.00219114   -1.79200482   -1.74485252       8
Ni     1.82670137    1.75671900    0.03308049       9
Co    -1.75417218    1.75008493    0.05788439      10
Co     0.04502621    1.74009847   -1.75762142      11
Ni     0.05089400    1.75941294    1.79059664      12
Co     1.85225129   -0.03884425   -1.75069253      13
Cr    -1.74147796    0.00558287    1.85386979      14
Cr     1.81598055   -1.77717198    0.04253012      15
Co     1.84287992   -0.01215659    1.82703241      16
Cr     0.10509731   -1.78241836    1.83371342      17
Ni     0.00000000    0.00000000    0.00000000      18
          18
Lattice="  24.8920   0.0000   0.0000   0.0000  24.8920   0.0000   0.0000   0.0000  24.8920 " ConfE="      -5925.4309" DelE="          0.6329"
Co    -3.44830665   -0.04046027    0.03742511       1
Co     0.05787980   -0.06780584   -3.45855698       2
Ni     3.61905447   -0.00537980    0.02992243       3
Cr     0.10596868   -3.65779701    0.09805528       4
Co     0.05493701   -0.00701408    3.58879474       5
Co     0.09566258    3.60234308    0.07385708       6
Ni    -1.75603725   -1.97533094    0.19958830       7
Co     0.08655598   -2.00715199   -1.75173948       8
Ni     1.78832130    1.74441261    0.02341327       9
Co    -1.76504366    1.86836356    0.10172720      10
Co     0.08791026    1.85070028   -1.76615942      11
Ni     0.04370277    1.73084346    1.74741186      12
Co     1.76178878   -0.05424220   -1.69803831      13
Cr    -1.66827581    0.00376404    1.74430739      14
Cr     1.75356865   -1.75366884    0.03321149      15
Co     1.79039939   -0.03369741    1.78587006      16
Cr     0.12735314   -1.72482732    1.78236234      17
Ni    -1.08295868   -0.09320382   -1.02910645      18
          18
Lattice="  24.8920   0.0000   0.0000   0.0000  24.8920   0.0000   0.0000   0.0000  24.8920 " ConfE="      -5925.9542" DelE="          0.1096"
Co    -3.52073281   -0.03130770    0.06200370       1
Co     0.08325952   -0.05571537   -3.52590011       2
Ni     3.64232021   -0.00542825    0.03740265       3
Cr     0.08228132   -3.60043025    0.06725047       4
Co     0.06880253   -0.00766330    3.60474653       5
Co     0.09249096    3.56933781    0.07086733       6
Ni    -1.67365237   -1.74954288    0.09444551       7
Co     0.04378190   -1.79286387   -1.70586199       8
Ni     1.80398640    1.73230396    0.03862768       9
Co    -1.72635612    1.74217823    0.08554212      10
Co     0.06747223    1.74444947   -1.73428912      11
Ni     0.06049119    1.72108482    1.76509066      12
Co     1.79648492   -0.04097902   -1.71029838      13
Cr    -1.69199172    0.01229165    1.80513148      14
Cr     1.78914535   -1.74553940    0.05625730      15
Co     1.81083337   -0.03824302    1.80242188      16
Cr     0.12853214   -1.74080693    1.81125028      17
Ni    -1.69505799    0.01129070   -1.68582077      18
