          23
Lattice="  24.8920   0.0000   0.0000   0.0000  24.8920   0.0000   0.0000   0.0000  24.8920 " ConfE="      -5935.7151" DelE="          0.0000"
Co    -1.72285708   -2.55981288    1.78795496       1
Ni    -1.80353083   -2.62006138   -1.93963312       2
Co     1.84981563   -2.59294337    1.83769266       3
Ni     1.85641115   -2.58874260   -1.74809403       4
Ni     0.09662821    1.00283377   -3.49373067       5
Ni    -3.50389341    0.95203462    0.01881564       6
Co     3.70705718    0.95235259    0.03807805       7
Co    -0.03023755    0.96270836    3.61593514       8
Cr    -0.03312045    2.99432442    2.29966486       9
Cr    -1.98302623    2.93668466   -0.05254621      10
Ni     2.12008052    2.88206865   -0.05091168      11
Ni     0.08629779    2.89194924   -1.85467732      12
Cr    -1.95627751   -1.05288441   -0.13009267      13
Cr     0.17950472   -0.95668143    1.98212959      14
Cr    -1.57797389    0.97292479   -1.57156007      15
Co     1.77024180    0.96942273   -1.64893559      16
Cr    -1.68665292    0.95141678    1.71690601      17
Ni     1.75907210    1.05125664    1.76736255      18
Co     0.05835861   -2.54367019    0.00506729      19
Co     0.01628403   -0.95376403   -2.02242382      20
Co     2.08498789   -0.87763526    0.07407677      21
Co     0.01062300    2.15876514    0.31796737      22
Co     0.00000000    0.00000000    0.00000000      23
          23
Lattice="  24.8920   0.0000   0.0000   0.0000  24.8920   0.0000   0.0000   0.0000  24.8920 " ConfE="      -5935.3344" DelE="          0.3808"
Co    -1.73841162   -2.58488847    1.83468734       1
Ni    -1.75117971   -2.57113842   -1.83951655       2
Co     1.83452237   -2.56438303    1.84770683       3
Ni     1.76261125   -2.50703927   -1.71479697       4
Ni     0.13075937    1.14458967   -3.57987287       5
Ni    -3.51631774    0.98331116    0.02872691       6
Co     3.72345902    1.02836719    0.04924734       7
Co    -0.01338259    1.00019855    3.61834621       8
Cr     0.08676438    2.94733921    2.02577258       9
Cr    -1.84623798    2.91050894    0.00613800      10
Ni     1.92418484    2.85436825    0.04677116      11
Ni     0.06537254    2.84548360   -1.74145522      12
Cr    -1.98985844   -0.96834825    0.08857043      13
Cr     0.14013052   -0.76540821    1.87767272      14
Cr    -1.62038430    0.89511463   -1.66614159      15
Co     1.75280925    0.93276292   -1.66533468      16
Cr    -1.72710219    0.94543732    1.76444974      17
Ni     1.85484307    1.05981550    1.84624917      18
Co     0.01789919   -2.75972157    0.15039352      19
Co    -0.16911356   -0.84993574   -2.51970670      20
Co     2.24232864   -0.79222982    0.19797823      21
Co    -0.03472393    1.57195166    0.27566055      22
Co     0.11374621   -0.53172036   -0.37932624      23
          23
Lattice="  24.8920   0.0000   0.0000   0.0000  24.8920   0.0000   0.0000   0.0000  24.8920 " ConfE="      -5939.7052" DelE="         -3.9900"
Co    -1.71523130   -2.57952892    1.81927708       1
Ni    -1.70611592   -2.55483344   -1.78520555       2
Co     1.81219100   -2.55878264    1.83582455       3
Ni     1.81354497   -2.57544381   -1.73360360       4
Ni     0.09973710    1.00127964   -3.49026443       5
Ni    -3.49496979    0.96815183    0.05610475       6
Co     3.64355244    0.97317277    0.03977802       7
Co    -0.00709123    0.99248654    3.60568050       8
Cr     0.02885633    2.81716006    1.84811900       9
Cr    -1.71735559    2.80875637    0.05327344      10
Ni     1.83522025    2.81496337    0.05287675      11
Ni     0.06638535    2.81159845   -1.70318896      12
Cr    -1.65330533   -0.84952495    0.03386680      13
Cr     0.11244434   -0.77442878    1.79623964      14
Cr    -1.66868304    0.93466441   -1.71209622      15
Co     1.86199793    0.99662580   -1.73815656      16
Cr    -1.70578109    0.98982473    1.80135492      17
Ni     1.83631776    1.04193931    1.83783833      18
Co     0.04582453   -2.57226752    0.06783837      19
Co    -1.72152723   -0.77880547   -3.53426221      20
Co     1.82567218   -0.77337761    0.06195608      21
Co     0.04562457    1.03529560    0.05743267      22
Co     0.05672003   -0.77556591   -1.70865447      23
