          18
Lattice="  24.8920   0.0000   0.0000   0.0000  24.8920   0.0000   0.0000   0.0000  24.8920 " ConfE="      -5938.5904" DelE="          0.0000"
Cr     0.05614557   -0.03304181   -3.48821696       1
Co     3.48841846    0.02632955   -0.02780416       2
Cr     0.00857742    0.00055340    3.58352748       3
Co    -3.60217223    0.05301679    0.00739776       4
Cr    -0.02901058   -3.52971396   -0.02018264       5
Cr    -0.00225127    3.56542603    0.02863251       6
Cr    -0.05285208   -1.74246351   -1.78297755       7
Ni    -0.00598971    1.74566271   -1.76197818       8
Cr     1.73568525   -1.72589180   -0.08434593       9
Cr     1.75341925    1.76016718   -0.01148240      10
Co    -1.82682602    0.01144790   -1.75196403      11
Cr     1.76941744    0.01969507    1.82071992      12
Cr    -1.84451385    0.01174426    1.77080544      13
Co    -1.80575558   -1.77530913    0.00960731      14
Co    -1.79812979    1.79390680    0.01745136      15
Ni    -0.00645878   -1.77484455    1.79403111      16
Co    -0.02081153    1.78461922    1.80072529      17
Ni     0.00000000    0.00000000    0.00000000      18
          18
Lattice="  24.8920   0.0000   0.0000   0.0000  24.8920   0.0000   0.0000   0.0000  24.8920 " ConfE="      -5938.0982" DelE="          0.4922"
Cr     0.06773876   -0.04104526   -3.42802052       1
Co     3.49588135    0.02382341   -0.01785851       2
Cr     0.02310657   -0.00385435    3.59328498       3
Co    -3.59412974    0.05870571    0.00966570       4
Cr    -0.02963008   -3.57322892   -0.00846016       5
Cr    -0.02762845    3.63742598    0.01838446       6
Cr    -0.21914787   -1.91552253   -1.84766661       7
Ni    -0.07595385    1.93064574   -1.81394364       8
Cr     1.79437647   -1.86722088   -0.01136515       9
Cr     1.75899337    1.89624015   -0.03438946      10
Co    -1.79496495    0.03567136   -1.74016896      11
Cr     1.66208300    0.03540245    1.71733942      12
Cr    -1.69388032    0.02383460    1.69487809      13
Co    -1.75789830   -1.75013341    0.00882362      14
Co    -1.76354622    1.78844878    0.00784582      15
Ni     0.00583376   -1.80416016    1.78907312      16
Co    -0.00281625    1.79256052    1.75672656      17
Ni     0.52083926   -0.03385723   -0.67930123      18
          18
Lattice="  24.8920   0.0000   0.0000   0.0000  24.8920   0.0000   0.0000   0.0000  24.8920 " ConfE="      -5938.8033" DelE="         -0.2129"
Cr     0.01040809   -0.02933926   -3.54895384       1
Co     3.56018861    0.01031327    0.01518823       2
Cr     0.00901777   -0.00208819    3.61861622       3
Co    -3.61388150    0.05414402    0.00119605       4
Cr    -0.04213663   -3.56236285   -0.00719277       5
Cr    -0.01544209    3.58767414    0.03600978       6
Cr    -0.13557631   -1.71863320   -1.73983623       7
Ni    -0.02312270    1.74560373   -1.73252352       8
Cr     1.65168609   -1.70566481   -0.02021446       9
Cr     1.69261363    1.72374036    0.07091502      10
Co    -1.76870433    0.00291753   -1.72249724      11
Cr     1.72434956    0.00235705    1.76522252      12
Cr    -1.81582377    0.01571965    1.75229590      13
Co    -1.76399349   -1.73603512    0.01958451      14
Co    -1.76576334    1.75019040    0.03028470      15
Ni    -0.02576479   -1.74884457    1.78677938      16
Co    -0.03233517    1.73966600    1.77614827      17
Ni     1.73914572   -0.00164840   -1.74206229      18
