          18
Lattice="  24.8920   0.0000   0.0000   0.0000  24.8920   0.0000   0.0000   0.0000  24.8920 " ConfE="      -5936.9459" DelE="          0.0000"
Ni    -0.01581516   -3.57213531    0.00886846       1
Ni     0.00929488   -0.05780349   -3.44129939       2
Ni    -3.56602095   -0.03585131    0.05902808       3
Ni    -0.02503606    3.53688572    0.04350308       4
Cr     3.50391263    0.05074498    0.02601669       5
Co    -0.00301447   -0.05543350    3.60227484       6
Ni     1.73244461   -1.79349910   -0.00753414       7
Ni    -1.77138098   -1.80725718   -0.00259072       8
Ni    -0.02636693   -1.81996490    1.81507451       9
Co     1.76508451    0.03690059   -1.74179452      10
Co    -1.79160578    0.02882623   -1.72225424      11
Ni    -1.77817092   -0.07329039    1.82163421      12
Cr     1.71686846   -0.02686382    1.76176064      13
Cr    -0.13159000    1.79988026   -1.76688553      14
Co     1.75400988    1.75449822   -0.00224376      15
Cr    -0.02065525    1.71452288    1.82373235      16
Co    -1.80560454    1.77574225    0.08709805      17
Co     0.00000000    0.00000000    0.00000000      18
          18
Lattice="  24.8920   0.0000   0.0000   0.0000  24.8920   0.0000   0.0000   0.0000  24.8920 " ConfE="      -5935.8688" DelE="          1.0771"
Ni    -0.01806286   -3.53355856    0.00585552       1
Ni     0.01358419   -0.01793271   -3.43819915       2
Ni    -3.62613205   -0.02205553    0.07302465       3
Ni    -0.02762276    3.54886601    0.03014520       4
Cr     3.62511457    0.04939334    0.04860684       5
Co    -0.00605319   -0.04811180    3.58398747       6
Ni     1.87588235   -1.82073202    0.05515026       7
Ni    -1.90845254   -1.81884219    0.06912298       8
Ni    -0.01967045   -1.76583412    1.73711550       9
Co     1.92038694    0.10475029   -1.75798882      10
Co    -1.94067970    0.08238556   -1.73871058      11
Ni    -1.78410795   -0.07105529    1.80040586      12
Cr     1.72553016   -0.04805319    1.71129583      13
Cr    -0.15164822    1.67095390   -1.63773480      14
Co     1.74531990    1.70923231   -0.00305686      15
Cr     0.00743851    1.57611073    1.59517192      16
Co    -1.80168861    1.74446308    0.08252051      17
Co    -0.00204250   -0.99021926   -1.08399103      18
          18
Lattice="  24.8920   0.0000   0.0000   0.0000  24.8920   0.0000   0.0000   0.0000  24.8920 " ConfE="      -5936.5150" DelE="          0.4309"
Ni    -0.01830520   -3.58722908    0.03095389       1
Ni     0.00807819    0.00883276   -3.52235432       2
Ni    -3.57893401   -0.03316183    0.05866949       3
Ni    -0.02712420    3.54861603    0.04309228       4
Cr     3.55260691    0.05703660    0.03993072       5
Co    -0.00245902   -0.05372556    3.61568098       6
Ni     1.74514517   -1.76243399    0.02904203       7
Ni    -1.77323403   -1.79074332    0.01674719       8
Ni    -0.01878026   -1.78186241    1.77981438       9
Co     1.73931674    0.06166783   -1.71886527      10
Co    -1.75868967    0.03158016   -1.70492789      11
Ni    -1.75710799   -0.06503678    1.80458488      12
Cr     1.71145592   -0.01379918    1.75770325      13
Cr    -0.16723723    1.74024754   -1.71921861      14
Co     1.70593852    1.70567953    0.02089750      15
Cr    -0.01707154    1.68519551    1.77829387      16
Co    -1.76723669    1.74962383    0.08818031      17
Co     0.03574461   -1.74722288   -1.77393809      18
