          18
Lattice="  24.8920   0.0000   0.0000   0.0000  24.8920   0.0000   0.0000   0.0000  24.8920 " ConfE="      -5942.9619" DelE="          0.0000"
Ni     0.09516364    0.10061253   -3.59630528       1
Cr     0.10639286    0.00062317    3.51642766       2
Co     0.02912902   -3.39023876   -0.02825249       3
Ni     3.64562834    0.08410076   -0.02689404       4
Co     0.09363288    3.69994763   -0.06698024       5
Co    -3.47010987    0.07048402   -0.05571193       6
Ni     1.80550159   -1.67884958   -0.03679633       7
Ni     1.80661965    0.05617516    1.73121478       8
Ni     1.84157721    0.09751715   -1.78931741       9
Ni     0.09150998    1.87169078   -1.78975464      10
Co    -1.63632464    0.05560292    1.72191679      11
Cr    -1.66457923   -1.67102941   -0.03548751      12
Ni     0.10481433    1.87789940    1.72651508      13
Ni    -1.69283690    1.86369386   -0.03837326      14
Co     0.05831693   -1.70473551   -1.84646956      15
Co    -1.70403648    0.07815342   -1.84069368      16
Co     1.87048250    1.86880538   -0.01841922      17
Cr     0.00000000    0.00000000    0.00000000      18
          18
Lattice="  24.8920   0.0000   0.0000   0.0000  24.8920   0.0000   0.0000   0.0000  24.8920 " ConfE="      -5941.8379" DelE="          1.1239"
Ni     0.10046494    0.14091591   -3.52006932       1
Cr     0.10785272    0.02082320    3.50022476       2
Co     0.03458772   -3.36595871   -0.04587478       3
Ni     3.75645574    0.07972322   -0.04721415       4
Co     0.11315954    3.62872645   -0.09397432       5
Co    -3.56824727    0.07493506   -0.06567988       6
Ni     1.94413112   -1.67177865   -0.11164987       7
Ni     1.91330489    0.08827572    1.71208489       8
Ni     1.98417133    0.07419452   -1.82714254       9
Ni     0.09795410    1.18559300   -1.05474048      10
Co    -1.81697361    0.13912531    1.75974139      11
Cr    -1.86178287   -1.62901251   -0.15337735      12
Ni     0.09780833    1.78919648    1.64130963      13
Ni    -1.83802591    1.86954566    0.00724164      14
Co     0.06108757   -1.65201350   -1.77270620      15
Co    -1.82774692    0.05166967   -1.85165679      16
Co     2.05953552    1.89899065    0.05087856      17
Cr    -0.05136987   -0.84494244    0.77578153      18
          18
Lattice="  24.8920   0.0000   0.0000   0.0000  24.8920   0.0000   0.0000   0.0000  24.8920 " ConfE="      -5943.2332" DelE="         -0.2714"
Ni     0.09700920    0.10485737   -3.60040244       1
Cr     0.09686487    0.05016247    3.55317259       2
Co     0.04176136   -3.45877955   -0.05568260       3
Ni     3.67029390    0.09438964   -0.04082047       4
Co     0.09728573    3.72117733   -0.07416052       5
Co    -3.50573582    0.06980297   -0.06217453       6
Ni     1.80267499   -1.64765793   -0.06178782       7
Ni     1.81808415    0.08976158    1.70268947       8
Ni     1.84322842    0.11769511   -1.79041582       9
Ni     0.10496447    1.87253200   -1.78249214      10
Co    -1.64306007    0.06678861    1.69384741      11
Cr    -1.66061795   -1.61961702   -0.07232907      12
Ni     0.10631576    1.83927936    1.69480461      13
Ni    -1.67075875    1.83647905   -0.05513360      14
Co     0.04276808   -1.67225792   -1.77009089      15
Co    -1.68178565    0.07798887   -1.81275754      16
Co     1.90157871    1.90058587   -0.02962394      17
Cr     0.02893581   -1.64024088    1.69129564      18
