          18
Lattice="  24.8920   0.0000   0.0000   0.0000  24.8920   0.0000   0.0000   0.0000  24.8920 " ConfE="      -5938.1123" DelE="          0.0000"
Cr    -3.24693435   -0.00243904   -0.07967672       1
Ni     0.09022807   -3.56973930    0.06137723       2
Cr     0.00039341   -0.04458581   -3.42447089       3
Ni     0.10972694   -0.02419998    3.61172118       4
Co     3.65150431   -0.04194422    0.09610039       5
Cr     0.02271576    3.50685483    0.02618483       6
Ni    -1.67538257   -1.80587314    0.04000702       7
Ni     0.10032568   -1.77655085    1.81982476       8
Co     0.05203826   -1.72856616   -1.72620533       9
Co     0.06932613    1.68232171   -1.71893883      10
Co    -1.67830509    1.73402913    0.02828277      11
Ni     1.85130407    0.00559323    1.82205559      12
Ni     1.86140492    1.75687637    0.04994141      13
Co    -1.70900883   -0.01514388    1.85578010      14
Cr     0.08208913    1.77445141    1.82962708      15
Cr     1.87659640   -0.03486719   -1.73728896      16
Co     1.88211761   -1.77806560    0.03902068      17
Cr     0.00000000    0.00000000    0.00000000      18
          18
Lattice="  24.8920   0.0000   0.0000   0.0000  24.8920   0.0000   0.0000   0.0000  24.8920 " ConfE="      -5937.4369" DelE="          0.6754"
Cr    -3.34960086    0.01404403    0.02063391       1
Ni     0.10140829   -3.60339591    0.08145954       2
Cr     0.02648539   -0.03551552   -3.46936902       3
Ni     0.10688167   -0.01919228    3.60602371       4
Co     3.65352934   -0.03675017    0.09560343       5
Cr     0.05096843    3.58975337    0.04984018       6
Ni    -1.71751788   -1.93072101    0.11725211       7
Ni     0.10207533   -1.75211765    1.78031039       8
Co     0.08878305   -1.85280297   -1.71209532       9
Co     0.10010129    1.80397511   -1.73756131      10
Co    -1.68964362    1.87287845    0.05588700      11
Ni     1.81875612    0.01279661    1.79277503      12
Ni     1.81251654    1.73993403    0.03726008      13
Co    -1.67565045    0.00345084    1.75526737      14
Cr     0.04283580    1.72949252    1.73670759      15
Cr     1.83256311   -0.04138982   -1.72232286      16
Co     1.86689812   -1.75858549    0.02433749      17
Cr    -0.77853303   -0.01509518   -0.75948712      18
          18
Lattice="  24.8920   0.0000   0.0000   0.0000  24.8920   0.0000   0.0000   0.0000  24.8920 " ConfE="      -5938.2636" DelE="         -0.1513"
Cr    -3.38231540    0.03590676    0.03897388       1
Ni     0.09625549   -3.58421136    0.07475821       2
Cr     0.06158658   -0.04374089   -3.55512560       3
Ni     0.11175810   -0.02120524    3.62656097       4
Co     3.66360053   -0.03536386    0.10417259       5
Cr     0.02943357    3.54955657    0.04624938       6
Ni    -1.64605986   -1.76405980    0.06599599       7
Ni     0.11472926   -1.75936892    1.81158641       8
Co     0.08832655   -1.73290573   -1.69134778       9
Co     0.09686173    1.68572124   -1.69750312      10
Co    -1.62672048    1.73148422    0.05680433      11
Ni     1.83249496    0.01249812    1.81598464      12
Ni     1.82797070    1.74581814    0.06592461      13
Co    -1.67923672    0.00636181    1.81408947      14
Cr     0.06921251    1.76864399    1.81772115      15
Cr     1.78468375   -0.04205835   -1.70239761      16
Co     1.89582498   -1.77149435    0.04723432      17
Cr    -1.57235002    0.00526638   -1.70441306      18
