          18
Lattice="  24.8920   0.0000   0.0000   0.0000  24.8920   0.0000   0.0000   0.0000  24.8920 " ConfE="      -5935.9574" DelE="          0.0000"
Ni     3.48041074    0.05439046   -0.06276732       1
Ni    -0.05619352    0.06120757   -3.58058656       2
Ni    -3.62432709    0.05242070   -0.07392272       3
Ni    -0.04897213    0.06039475    3.50689998       4
Co     0.05158313   -3.41843275   -0.04696021       5
Co    -0.02830259    3.58570211    0.00244431       6
Ni     1.71539187    0.01477062   -1.79301469       7
Ni    -1.81257128    1.83697196   -0.06533298       8
Cr     1.75902784   -0.03837083    1.74743961       9
Cr    -0.00455338   -1.72357433   -1.74551593      10
Co     0.01800495   -1.70272737    1.68747499      11
Ni    -1.84655414   -1.72150993   -0.06562292      12
Cr     1.73179707    1.88596147   -0.02828090      13
Co    -0.00429174    1.79564084   -1.77457199      14
Cr    -0.03787231    1.82446853    1.71639379      15
Cr    -1.84981461    0.05739921   -1.83329849      16
Co    -1.81729609    0.06136703    1.71202522      17
Cr     0.00000000    0.00000000    0.00000000      18
          18
Lattice="  24.8920   0.0000   0.0000   0.0000  24.8920   0.0000   0.0000   0.0000  24.8920 " ConfE="      -5935.3227" DelE="          0.6347"
Ni     3.45039291    0.05365110   -0.05883995       1
Ni    -0.06206961    0.06673248   -3.63644005       2
Ni    -3.61523441    0.04347593   -0.07270130       3
Ni    -0.05671046    0.06862299    3.55795207       4
Co     0.04122672   -3.42274064   -0.03202313       5
Co    -0.02314924    3.58427130    0.00755115       6
Ni     1.73390230    0.06244691   -1.91241081       7
Ni    -1.78850588    1.81136386   -0.06305358       8
Cr     1.84481860   -0.02451539    1.93164098       9
Cr    -0.05770073   -1.71688271   -1.88593995      10
Co    -0.10737752   -1.76062110    1.87013621      11
Ni    -1.75118007   -1.68391058   -0.06527933      12
Cr     1.71989061    1.85255911   -0.07112700      13
Co     0.00427838    1.73277401   -1.73902801      14
Cr     0.04158843    1.58290531    1.56549029      15
Cr    -1.78467916    0.04501659   -1.80076154      16
Co    -1.77139533    0.06506331    1.69311279      17
Cr     0.90056314   -0.92469563    0.06346946      18
          18
Lattice="  24.8920   0.0000   0.0000   0.0000  24.8920   0.0000   0.0000   0.0000  24.8920 " ConfE="      -5935.8501" DelE="          0.1073"
Ni     3.52122304    0.09004365   -0.05927174       1
Ni    -0.06227069    0.06947727   -3.60772693       2
Ni    -3.63142607    0.05649119   -0.07398788       3
Ni    -0.04775357    0.07043749    3.52773327       4
Co     0.00325275   -3.49073244   -0.04766811       5
Co    -0.04759631    3.62653378   -0.00501441       6
Ni     1.68587249    0.04227523   -1.79116908       7
Ni    -1.80564185    1.83278393   -0.06947791       8
Cr     1.72333559    0.08017054    1.73527470       9
Cr    -0.05724913   -1.67017134   -1.74471172      10
Co     0.00137536   -1.67403500    1.67357649      11
Ni    -1.79666705   -1.68635665   -0.06430769      12
Cr     1.67536471    1.84517470   -0.03802107      13
Co    -0.01576113    1.77992556   -1.75166704      14
Cr    -0.05431518    1.78872868    1.66951254      15
Cr    -1.83030294    0.06675979   -1.81766439      16
Co    -1.77079827    0.08566452    1.68911312      17
Cr     1.69660267   -1.68546625    0.03176478      18
