          18
Lattice="  24.8920   0.0000   0.0000   0.0000  24.8920   0.0000   0.0000   0.0000  24.8920 " ConfE="      -5950.3451" DelE="          0.0000"
Ni    -0.04351470   -0.00353471   -3.48544311       1
Ni     3.49421408   -0.00691754   -0.00586406       2
Cr    -0.01770886   -0.00795369    3.58654093       3
Ni    -3.59710840   -0.00077999    0.04041622       4
Co    -0.00780737   -3.56245552    0.05267337       5
Ni     0.00349002    3.55750833    0.03499465       6
Ni    -0.02680166   -1.75685604   -1.74139462       7
Co    -0.09821804    1.79523980   -1.76898287       8
Ni     1.76396466   -1.76508252    0.01963754       9
Ni     1.73780616    1.73014686   -0.00758195      10
Co    -1.86565589    0.02280328   -1.73690262      11
Cr     1.68413299    0.02200276    1.83155651      12
Cr    -1.76250685   -0.00005958    1.80507904      13
Ni    -1.80274809   -1.77178688    0.01938792      14
Cr    -1.78449988    1.79079844    0.03311510      15
Co    -0.01535189   -1.77442529    1.82350192      16
Co    -0.02584772    1.76420400    1.83272652      17
Ni     0.00000000    0.00000000    0.00000000      18
          18
Lattice="  24.8920   0.0000   0.0000   0.0000  24.8920   0.0000   0.0000   0.0000  24.8920 " ConfE="      -5949.5036" DelE="          0.8416"
Ni    -0.04633349   -0.01681725   -3.46121938       1
Ni     3.44312129   -0.01263720    0.00871501       2
Cr     0.00136751   -0.00055937    3.60630341       3
Ni    -3.58323440   -0.00863176    0.03664195       4
Co    -0.03732717   -3.63409678    0.05592275       5
Ni    -0.01798272    3.62374406    0.03688362       6
Ni    -0.08750639   -1.89642104   -1.75100703       7
Co    -0.14541906    1.90747030   -1.77797018       8
Ni     1.77634877   -1.94342908    0.05806416       9
Ni     1.75150868    1.90151287    0.05508800      10
Co    -1.78563576    0.02505569   -1.68287566      11
Cr     1.56003081   -0.00372362    1.66844654      12
Cr    -1.64115837    0.00125458    1.73824824      13
Ni    -1.76375676   -1.76000627    0.02397732      14
Cr    -1.70189689    1.72711189   -0.01510300      15
Co    -0.00757452   -1.75316652    1.78435826      16
Co    -0.02253000    1.74212832    1.77914491      17
Ni     1.12493322   -0.00154779   -1.12860162      18
          18
Lattice="  24.8920   0.0000   0.0000   0.0000  24.8920   0.0000   0.0000   0.0000  24.8920 " ConfE="      -5949.9130" DelE="          0.4322"
Ni    -0.06688045   -0.00728305   -3.51354543       1
Ni     3.50066665   -0.00579063    0.02459197       2
Cr    -0.01500254   -0.00392606    3.63160251       3
Ni    -3.59730406   -0.01034932    0.04528140       4
Co    -0.01505739   -3.59492677    0.06231853       5
Ni    -0.00424718    3.58070804    0.03393528       6
Ni    -0.05682355   -1.76682134   -1.71603500       7
Co    -0.11381163    1.78312455   -1.73359172       8
Ni     1.72585052   -1.77533140    0.04589703       9
Ni     1.68082760    1.71794989    0.02600432      10
Co    -1.80468044    0.03275039   -1.68181644      11
Cr     1.57782735   -0.00720852    1.76655223      12
Cr    -1.65219839    0.00012267    1.75087743      13
Ni    -1.77769665   -1.75504466    0.03122712      14
Cr    -1.74936132    1.75147061    0.01349757      15
Co    -0.02240325   -1.74330042    1.80885263      16
Co    -0.03864387    1.73275965    1.80629309      17
Ni     1.67877117   -0.01995548   -1.70187792      18
