          18
Lattice="  24.8920   0.0000   0.0000   0.0000  24.8920   0.0000   0.0000   0.0000  24.8920 " ConfE="      -5930.2612" DelE="          0.0000"
Cr    -0.06600985    0.04706022   -3.53183193       1
Co    -0.01616526    3.59341998    0.00361451       2
Co     0.02716366    0.01978124    3.60881365       3
Ni    -0.01545111   -3.55162020    0.00603091       4
Co    -3.60231874    0.02238426    0.00229156       5
Co     3.55144211   -0.01370709   -0.00920824       6
Cr    -1.74265443    0.06478369   -1.75094797       7
Cr     1.67633729    0.07061700   -1.77530869       8
Co    -1.75608159    1.76365956   -0.04819885       9
Ni     1.73014340    1.77264400   -0.00916412      10
Cr    -0.04405191   -1.81207403   -1.81899131      11
Co     0.00741899    1.79702954    1.82472324      12
Cr     0.01023396   -1.79771201    1.84542811      13
Ni    -1.77481481   -1.77370599    0.01759278      14
Cr     1.77375139   -1.79023636   -0.00470019      15
Ni    -1.76398249   -0.00696717    1.78103160      16
Ni     1.76515330   -0.00779526    1.79353858      17
Ni     0.00000000    0.00000000    0.00000000      18
          18
Lattice="  24.8920   0.0000   0.0000   0.0000  24.8920   0.0000   0.0000   0.0000  24.8920 " ConfE="      -5929.7658" DelE="          0.4953"
Cr    -0.08174667    0.05330620   -3.46421188       1
Co    -0.02175326    3.57206419   -0.01182489       2
Co     0.03253444    0.03072129    3.61334813       3
Ni    -0.01640126   -3.55539865   -0.00152198       4
Co    -3.63532024    0.00928114    0.02035940       5
Co     3.61440916   -0.00900729    0.02314769       6
Cr    -2.03522092   -0.00956531   -1.78977003       7
Cr     2.02790273    0.03111402   -1.78340466       8
Co    -1.88120655    1.81426468   -0.00025237       9
Ni     1.84674275    1.79853058    0.02864097      10
Cr    -0.03555983   -1.79228928   -1.78889431      11
Co     0.00288009    1.75683523    1.75291506      12
Cr     0.01616085   -1.71247164    1.75688596      13
Ni    -1.76229748   -1.74566634    0.00143479      14
Cr     1.71385363   -1.70547615   -0.01707058      15
Ni    -1.75847546   -0.00043688    1.75354258      16
Ni     1.77444315    0.00662167    1.78126917      17
Ni    -0.01364302    0.57783102   -0.80869704      18
          18
Lattice="  24.8920   0.0000   0.0000   0.0000  24.8920   0.0000   0.0000   0.0000  24.8920 " ConfE="      -5930.2641" DelE="         -0.0030"
Cr    -0.07102052    0.01446042   -3.58461307       1
Co    -0.01736814    3.62322300    0.03072968       2
Co     0.03037292    0.02413263    3.62584846       3
Ni    -0.01608737   -3.57140243    0.00606541       4
Co    -3.63228372    0.01818997    0.01295404       5
Co     3.59047506   -0.02300233    0.00849223       6
Cr    -1.76375128    0.01144176   -1.71783394       7
Cr     1.68305655   -0.01042260   -1.70133199       8
Co    -1.78012398    1.73940592    0.00431985       9
Ni     1.74311720    1.73666344    0.02680280      10
Cr    -0.04283500   -1.74706665   -1.77321624      11
Co     0.00751543    1.77973385    1.79732054      12
Cr     0.01151486   -1.77991972    1.82076174      13
Ni    -1.74055836   -1.74183281    0.02214970      14
Cr     1.72943927   -1.75821278    0.01576116      15
Ni    -1.73268238   -0.01168212    1.75960690      16
Ni     1.73780505   -0.01878590    1.77041050      17
Ni    -0.01643030    1.75630791   -1.69988270      18
