          18
Lattice="  24.8920   0.0000   0.0000   0.0000  24.8920   0.0000   0.0000   0.0000  24.8920 " ConfE="      -5924.5210" DelE="          0.0000"
Ni    -0.02520888    3.51967104   -0.02337699       1
Ni    -3.54745500   -0.04152024    0.00596172       2
Co     0.01685480   -0.06578616   -3.53390153       3
Cr     3.47592077   -0.00516871    0.01953557       4
Cr    -0.01617506   -0.09424719    3.63587659       5
Co     0.02121146   -3.56661863    0.02203012       6
Ni     1.72735061    1.76822128   -0.00825632       7
Ni     1.73288629    0.02496790   -1.75905818       8
Ni    -1.79874129    1.73703258   -0.00721489       9
Ni    -1.74815090   -0.03835163   -1.75668692      10
Ni    -0.03229183    1.74837675    1.83436419      11
Ni    -1.77253657   -0.02202352    1.79356312      12
Cr     1.76084405   -0.00213021    1.87091116      13
Cr     1.76296087   -1.80790284    0.06512521      14
Co     0.03062741   -1.77362968    1.78130523      15
Cr     0.03800520   -1.81559701   -1.76707177      16
Cr    -1.73254436   -1.84995374    0.05183375      17
Ni     0.00000000    0.00000000    0.00000000      18
          18
Lattice="  24.8920   0.0000   0.0000   0.0000  24.8920   0.0000   0.0000   0.0000  24.8920 " ConfE="      -5920.3742" DelE="          4.1468"
Ni    -0.04904095    3.57392584   -0.02918809       1
Ni    -3.52304843   -0.04662673   -0.00602744       2
Co    -0.00466400   -0.05155397   -3.61904861       3
Cr     3.45753733    0.03025951   -0.05609619       4
Cr    -0.10242468   -0.06946104    3.72195972       5
Co     0.01047639   -3.59306494    0.01084455       6
Ni     1.63153140    1.74877275   -0.01725386       7
Ni     1.65242048    0.11147752   -1.82754768       8
Ni    -1.77709571    1.72708102   -0.02567143       9
Ni    -1.64730768   -0.03635266   -1.71914165      10
Ni    -0.15944124    1.85865669    1.82765999      11
Ni    -1.73233356   -0.01975792    1.76969768      12
Cr     1.45356668    0.25428099    1.91115967      13
Cr     2.64271347   -1.63735174    1.65252220      14
Co     0.00767221   -1.76008628    1.82319339      15
Cr    -0.05700155   -1.82339155   -1.93692907      16
Cr    -1.63577794   -1.81370429    0.03050368      17
Ni     1.38230532   -1.58552665   -0.18943082      18
          18
Lattice="  24.8920   0.0000   0.0000   0.0000  24.8920   0.0000   0.0000   0.0000  24.8920 " ConfE="      -5920.4688" DelE="          4.0522"
Ni    -0.04624226    3.57321502   -0.02571834       1
Ni    -3.54082184   -0.04238069    0.00146227       2
Co     0.00969727   -0.06547397   -3.57845559       3
Cr     3.52846831    0.03632395   -0.06162265       4
Cr    -0.11245092   -0.06059527    3.71525128       5
Co     0.01775880   -3.58321865    0.02756507       6
Ni     1.64780046    1.74376646   -0.00530482       7
Ni     1.65866764    0.05843240   -1.74912578       8
Ni    -1.78191487    1.72974250   -0.01597491       9
Ni    -1.65780124   -0.04438165   -1.69763716      10
Ni    -0.14649652    1.85224196    1.82590976      11
Ni    -1.74348113   -0.01413066    1.77201563      12
Cr     1.42511561    0.19822568    1.86071765      13
Cr     3.03603761   -1.37096628    1.92941364      14
Co     0.02667944   -1.72762212    1.77902054      15
Cr     0.00243589   -1.80980265   -1.77237554      16
Cr    -1.68225160   -1.82793650    0.04689377      17
Ni     1.67981384   -1.69937002   -0.01798478      18
