          18
Lattice="  24.8920   0.0000   0.0000   0.0000  24.8920   0.0000   0.0000   0.0000  24.8920 " ConfE="      -5923.2220" DelE="          0.0000"
Ni    -3.47052216    0.00622661    0.00269711       1
Co     0.02657050    0.04441241    3.46439811       2
Cr     3.62245622   -0.03484628   -0.08202476       3
Co     0.07838812   -0.00220139   -3.57593582       4
Ni     0.02934868   -3.50583294   -0.00978587       5
Co     0.00888391    3.52801217   -0.02842228       6
Co    -1.69005193   -1.71423979    0.01103994       7
Co    -1.71569927    1.75594160   -0.04055760       8
Cr    -0.08131848   -1.63864139    1.79499740       9
Cr    -0.06701584    1.69796876    1.73230874      10
Cr    -1.74236738    0.01518821   -1.83886154      11
Co     1.83334101    0.00819047    1.69374822      12
Co     1.82163277    0.00412856   -1.76821456      13
Co     0.04870958   -1.71640324   -1.77100424      14
Cr     0.08639150    1.72673932   -1.82194736      15
Cr     1.84492280   -1.77852848   -0.02541065      16
Ni     1.84455715    1.78390608   -0.00661254      17
Cr     0.00000000    0.00000000    0.00000000      18
          18
Lattice="  24.8920   0.0000   0.0000   0.0000  24.8920   0.0000   0.0000   0.0000  24.8920 " ConfE="      -5922.8065" DelE="          0.4155"
Ni    -3.43124138   -0.00162782   -0.01585447       1
Co     0.03071191    0.04200011    3.48398210       2
Cr     3.57485696   -0.04174194   -0.07484990       3
Co     0.07857883   -0.00453424   -3.59332526       4
Ni     0.03782827   -3.57202630   -0.03590522       5
Co     0.00589646    3.60091030   -0.04786473       6
Co    -1.71611570   -1.81839591   -0.03564314       7
Co    -1.70897840    1.84280852   -0.09986777       8
Cr     0.02215890   -1.93669255    1.85563034       9
Cr    -0.00502703    1.93138539    1.77854121      10
Cr    -1.66517604   -0.00940699   -1.79589840      11
Co     1.71125511    0.00245606    1.67203765      12
Co     1.76467035    0.01401877   -1.73287702      13
Co     0.03532318   -1.68551535   -1.71692500      14
Cr     0.05732373    1.67335155   -1.76225651      15
Cr     1.67921995   -1.66337544    0.00892086      16
Ni     1.77602968    1.77329582    0.00995339      17
Cr    -0.89435463   -0.00033381    1.02316462      18
          18
Lattice="  24.8920   0.0000   0.0000   0.0000  24.8920   0.0000   0.0000   0.0000  24.8920 " ConfE="      -5923.1564" DelE="          0.0656"
Ni    -3.52044374    0.01020421   -0.03325883       1
Co     0.05036999    0.04104030    3.54380399       2
Cr     3.62434618   -0.04108422   -0.08983807       3
Co     0.08985389   -0.00633885   -3.60001587       4
Ni     0.04086791   -3.54144919   -0.02282941       5
Co     0.01368298    3.56690746   -0.04370059       6
Co    -1.66777378   -1.69994153   -0.00793720       7
Co    -1.68390592    1.74962459   -0.07815409       8
Cr     0.03669009   -1.67505728    1.72402705       9
Cr     0.00758508    1.75196258    1.70164425      10
Cr    -1.66249528    0.01127996   -1.76307148      11
Co     1.74218948    0.00050277    1.65241124      12
Co     1.79053432    0.00689935   -1.74142403      13
Co     0.05905359   -1.68366886   -1.72969672      14
Cr     0.08726185    1.67991531   -1.78284814      15
Cr     1.81610769   -1.74646688   -0.03697335      16
Ni     1.83705689    1.77813173   -0.02028686      17
Cr    -1.64995875    0.04597983    1.68558974      18
