          18
Lattice="  24.8920   0.0000   0.0000   0.0000  24.8920   0.0000   0.0000   0.0000  24.8920 " ConfE="      -5942.2501" DelE="          0.0000"
Ni    -0.04083973   -0.00070820    3.49887879       1
Ni    -0.03202817   -3.56436038   -0.01460091       2
Ni    -0.04984108   -0.02438772   -3.59156204       3
Ni     0.00047347    3.53729230   -0.01612454       4
Ni    -3.55371109   -0.01706129   -0.01100683       5
Co     3.50097575   -0.04059192   -0.04791520       6
Ni    -1.76457084   -0.00721147    1.74685480       7
Ni    -1.72407029   -1.79297159   -0.00436446       8
Co     1.69026077   -1.79617322    0.00155425       9
Cr     1.66763179   -0.17008083    1.71116233      10
Ni     1.72130054   -0.04581149   -1.83171763      11
Ni    -0.00634754    1.78472407    1.74201358      12
Ni    -1.76659306   -0.03086476   -1.79467762      13
Co     1.78257395    1.73798735   -0.00123913      14
Cr     0.00562999   -1.92135647   -1.91363411      15
Cr    -0.00478551    1.77426076   -1.77365399      16
Co    -1.77140377    1.78578416   -0.04365295      17
Cr     0.00000000    0.00000000    0.00000000      18
          18
Lattice="  24.8920   0.0000   0.0000   0.0000  24.8920   0.0000   0.0000   0.0000  24.8920 " ConfE="      -5941.3213" DelE="          0.9288"
Ni    -0.02530354    0.00057470    3.43940403       1
Ni    -0.03568210   -3.51408886   -0.02802284       2
Ni    -0.05407607   -0.01737871   -3.59214931       3
Ni    -0.01160168    3.55384790   -0.00104215       4
Ni    -3.60459194   -0.01111518   -0.02995965       5
Co     3.54054087   -0.04358409   -0.06014745       6
Ni    -1.87350033    0.03519106    1.74945906       7
Ni    -1.82817104   -1.80220142   -0.04043791       8
Co     1.84089747   -1.85543403   -0.07234066       9
Cr     1.90910358   -0.01249232    1.76188198      10
Ni     1.69160913   -0.06596339   -1.78269816      11
Ni    -0.01010846    1.73873286    1.70747573      12
Ni    -1.75734689   -0.03941413   -1.76462792      13
Co     1.73404263    1.67959684   -0.00646178      14
Cr    -0.00053493   -1.87742696   -1.88201024      15
Cr    -0.03076425    1.67600877   -1.62902235      16
Co    -1.75711297    1.76521014   -0.05042154      17
Cr     0.11150572   -0.76508633    0.80464377      18
          18
Lattice="  24.8920   0.0000   0.0000   0.0000  24.8920   0.0000   0.0000   0.0000  24.8920 " ConfE="      -5942.3303" DelE="         -0.0802"
Ni    -0.03946231    0.03428230    3.53986342       1
Ni    -0.03187783   -3.60201100   -0.05414585       2
Ni    -0.05002384   -0.01528865   -3.60878290       3
Ni    -0.00486864    3.56486798   -0.01399070       4
Ni    -3.56840039   -0.00998097   -0.02553947       5
Co     3.52253715   -0.03863852   -0.06358131       6
Ni    -1.75157384    0.01902265    1.70953878       7
Ni    -1.71242051   -1.76738089   -0.04968685       8
Co     1.67500958   -1.76777047   -0.01815724       9
Cr     1.70712775   -0.06688078    1.68225164      10
Ni     1.68507794   -0.03824202   -1.80997150      11
Ni     0.00248848    1.74242243    1.69951665      12
Ni    -1.73764143   -0.02472096   -1.78474841      13
Co     1.74607762    1.72460578   -0.03572671      14
Cr     0.01641413   -1.90284233   -1.90342343      15
Cr    -0.02787604    1.74346724   -1.71356583      16
Co    -1.74544301    1.79148875   -0.07575099      17
Cr     0.00332352   -1.75847672    1.74780152      18
