          18
Lattice="  24.8920   0.0000   0.0000   0.0000  24.8920   0.0000   0.0000   0.0000  24.8920 " ConfE="      -5936.8642" DelE="          0.0000"
Ni    -3.48514601   -0.00595391    0.06766211       1
Ni     0.02187247   -0.02442609    3.62492231       2
Co    -0.02290336    3.45782251    0.04744872       3
Cr    -0.05446904   -0.02415251   -3.44571886       4
Cr    -0.02841468   -3.60396793    0.10984682       5
Cr     3.57466574   -0.10807618    0.11032912       6
Ni    -1.73333015    0.01976826    1.79262450       7
Ni     0.00413451    1.73812221    1.79906201       8
Co    -1.73374408   -0.03221373   -1.66341607       9
Ni     0.00537374   -1.82631230   -1.70050687      10
Ni     1.82524826   -0.06523272   -1.71666253      11
Co     0.01755248    1.68254271   -1.67649089      12
Ni     1.79250244   -0.01657772    1.82452573      13
Co    -1.77030394   -1.86125847    0.05832499      14
Co     1.81631888   -1.83181919    0.08179439      15
Co     1.83695477    1.73754865    0.04944335      16
Co     0.01652274   -1.79576825    1.80344728      17
Cr     0.00000000    0.00000000    0.00000000      18
          18
Lattice="  24.8920   0.0000   0.0000   0.0000  24.8920   0.0000   0.0000   0.0000  24.8920 " ConfE="      -5936.1294" DelE="          0.7349"
Ni    -3.44199416    0.01032578    0.06880319       1
Ni     0.01928698   -0.03903661    3.67257595       2
Co    -0.04026538    3.40134485    0.05471737       3
Cr    -0.01659171   -0.08280332   -3.57280624       4
Cr    -0.04211061   -3.57919987    0.10985976       5
Cr     3.55220802   -0.10229025    0.11492623       6
Ni    -1.77381849   -0.02476461    1.92733760       7
Ni     0.03887920    1.75781704    1.94221702       8
Co    -1.76760008   -0.06786091   -1.80385745       9
Ni     0.00530932   -1.75890208   -1.66892304      10
Ni     1.77756714   -0.04855900   -1.69793345      11
Co     0.05993293    1.72356821   -1.84233822      12
Ni     1.73395095   -0.01085673    1.79509806      13
Co    -1.74038188   -1.77516195    0.05253965      14
Co     1.80655211   -1.81455643    0.08729439      15
Co     1.75202881    1.71345726    0.04081219      16
Co    -0.00447597   -1.77404122    1.77579134      17
Cr    -0.80680738    0.80808057    0.01656489      18
          18
Lattice="  24.8920   0.0000   0.0000   0.0000  24.8920   0.0000   0.0000   0.0000  24.8920 " ConfE="      -5936.6973" DelE="          0.1669"
Ni    -3.53154705   -0.02964669    0.07301354       1
Ni     0.02910345   -0.04028797    3.64112507       2
Co     0.00617176    3.51176470    0.04538491       3
Cr    -0.03644323   -0.04575334   -3.49893676       4
Cr    -0.03310600   -3.59697305    0.11737601       5
Cr     3.58524978   -0.10871015    0.11103876       6
Ni    -1.72595460   -0.02657056    1.81593257       7
Ni     0.03121602    1.71161585    1.80209182       8
Co    -1.72173691   -0.03578761   -1.65250657       9
Ni     0.01530072   -1.77972735   -1.65454209      10
Ni     1.81305585   -0.06307668   -1.69280368      11
Co     0.03583883    1.67227351   -1.68942432      12
Ni     1.77593770   -0.03366994    1.79190206      13
Co    -1.76983216   -1.82707790    0.06579166      14
Co     1.83453970   -1.84661943    0.08981642      15
Co     1.79477334    1.73135383    0.03710999      16
Co     0.02024221   -1.81626977    1.79188111      17
Cr    -1.67149983    1.64563918    0.05823951      18
