          18
Lattice="  24.8920   0.0000   0.0000   0.0000  24.8920   0.0000   0.0000   0.0000  24.8920 " ConfE="      -5935.3964" DelE="          0.0000"
Co     0.00069893   -0.03655141   -3.52981314       1
Co     0.03879209   -3.48765961    0.04195537       2
Ni    -0.00537537    0.04034585    3.61489016       3
Cr     0.02322796    3.57621369    0.01935076       4
Co    -3.52556208    0.08917362    0.03202922       5
Ni     3.51373200    0.01188173   -0.00580889       6
Cr    -1.74940051    0.01114521   -1.77066544       7
Ni     1.74237074   -0.05738860   -1.75261663       8
Ni    -1.76802584   -1.71715599    0.01013880       9
Cr     1.72138976   -1.84348316    0.04554520      10
Cr     0.00903729    1.83105699   -1.76729803      11
Ni    -0.01912278   -1.70561109    1.83824594      12
Co    -0.00204650    1.81839980    1.77048256      13
Cr    -1.76968810    1.79934850    0.04989224      14
Co     1.71723902    1.83771465   -0.00448546      15
Co    -1.79210651    0.11034976    1.78933826      16
Co     1.79429967    0.04718617    1.78004607      17
Ni     0.00000000    0.00000000    0.00000000      18
          18
Lattice="  24.8920   0.0000   0.0000   0.0000  24.8920   0.0000   0.0000   0.0000  24.8920 " ConfE="      -5934.8489" DelE="          0.5475"
Co     0.02072707   -0.02417521   -3.52624582       1
Co     0.02392311   -3.51324602    0.04900054       2
Ni    -0.00463797    0.03328391    3.59430286       3
Cr     0.01890579    3.59052381    0.00217804       4
Co    -3.58661724    0.09951099    0.03870425       5
Ni     3.58192570    0.04426469    0.00620673       6
Cr    -1.88252938    0.06783915   -1.77437166       7
Ni     1.90603096    0.03151054   -1.79171186       8
Ni    -1.92948529   -1.74624891    0.07670484       9
Cr     1.89486024   -1.81366365    0.12789670      10
Cr     0.03299109    1.72393822   -1.69751799      11
Ni    -0.01996203   -1.63429006    1.70285375      12
Co    -0.00140431    1.77045083    1.71038142      13
Cr    -1.70132903    1.71008815    0.04689065      14
Co     1.68424322    1.77885298   -0.03103155      15
Co    -1.78364605    0.11265458    1.72579033      16
Co     1.79459044    0.04640784    1.72893123      17
Ni     0.01219842   -1.06352920   -1.02812026      18
          18
Lattice="  24.8920   0.0000   0.0000   0.0000  24.8920   0.0000   0.0000   0.0000  24.8920 " ConfE="      -5935.3945" DelE="          0.0019"
Co     0.01266609    0.01510430   -3.58919838       1
Co     0.03500792   -3.53808079    0.06529156       2
Ni    -0.00566547    0.04407548    3.62067692       3
Cr     0.02343146    3.61095461    0.01898091       4
Co    -3.55878253    0.09900750    0.03877742       5
Ni     3.54235461    0.03867666   -0.00212242       6
Cr    -1.73186766    0.07098223   -1.70586246       7
Ni     1.75290758    0.00972188   -1.72941977       8
Ni    -1.76240102   -1.68060543    0.02698051       9
Cr     1.74591175   -1.75543546    0.08793621      10
Cr     0.01593462    1.78877000   -1.71305869      11
Ni    -0.01306298   -1.64901097    1.76896465      12
Co    -0.00558935    1.79340895    1.73070325      13
Cr    -1.71129813    1.76155561    0.06925424      14
Co     1.67432380    1.80693954   -0.01241336      15
Co    -1.77297301    0.12855252    1.74526026      16
Co     1.77749913    0.06116625    1.74597559      17
Ni     0.01167820   -1.70759588   -1.72722613      18
