          18
Lattice="  24.8920   0.0000   0.0000   0.0000  24.8920   0.0000   0.0000   0.0000  24.8920 " ConfE="      -5933.4292" DelE="          0.0000"
Co    -0.01553272   -3.51021950   -0.01388499       1
Co     0.01848443   -0.04249079    3.45713757       2
Cr     0.01862001    0.08068897   -3.59288537       3
Co    -0.02192221    3.63464188   -0.02748091       4
Cr    -3.57429238    0.06282594   -0.04191272       5
Cr     3.52411867    0.05587598   -0.01388720       6
Co    -1.77146850   -1.70061881   -0.01055931       7
Cr    -1.71876829   -0.05527609    1.72837783       8
Co     1.75778437   -1.77514997   -0.03238819       9
Cr     1.69226044   -0.07215232    1.68545399      10
Ni    -0.01650714    1.84190696   -1.82683732      11
Ni     1.74259310    1.85099520   -0.02778496      12
Ni     1.75200654    0.03964566   -1.80353988      13
Co    -0.00243751   -1.74015074   -1.83184691      14
Cr     0.00279256    1.83930277    1.73808468      15
Cr    -1.76918810    1.82366414   -0.01632655      16
Cr    -1.72214017    0.01782748   -1.80151483      17
Co     0.00000000    0.00000000    0.00000000      18
          18
Lattice="  24.8920   0.0000   0.0000   0.0000  24.8920   0.0000   0.0000   0.0000  24.8920 " ConfE="      -5929.2647" DelE="          4.1645"
Co    -0.00892879   -3.58389659   -0.01849512       1
Co     0.03637099   -0.14166559    3.37120366       2
Cr    -0.06704883    0.06678497   -3.54019217       3
Co    -0.00709114    3.60551566    0.00455417       4
Cr    -3.46417933    0.03258312   -0.13742598       5
Cr     3.59800408    0.01740299   -0.17528237       6
Co    -1.77522440   -1.86915218   -0.01163526       7
Cr    -1.84625908   -0.15189595    1.72234571       8
Co     1.64068437   -1.70558687   -0.03041948       9
Cr     1.90027668   -0.13028400    1.62302793      10
Ni     0.02308931    1.92777218   -1.85999326      11
Ni     1.99366990    1.90777761   -0.18481390      12
Ni     1.70762515    0.03789682   -1.80557238      13
Co     0.01203272   -1.87317682   -1.87062274      14
Cr    -0.87861996    1.94751732    2.79430721      15
Cr    -1.78769992    1.95507735   -0.05001170      16
Cr    -0.65073202   -0.04197781   -0.73804466      17
Co     0.20449706    1.23053322    1.05090028      18
          18
Lattice="  24.8920   0.0000   0.0000   0.0000  24.8920   0.0000   0.0000   0.0000  24.8920 " ConfE="      -5929.5509" DelE="          3.8783"
Co    -0.05026734   -3.48129217   -0.00684575       1
Co     0.02520404   -0.03061210    3.51660415       2
Cr    -0.09606397    0.06392406   -3.52118267       3
Co    -0.01128304    3.62441794   -0.04412727       4
Cr    -3.37994490    0.05066438   -0.19274668       5
Cr     3.57015097    0.01558694   -0.09225828       6
Co    -1.83272812   -1.81531803   -0.22070823       7
Cr    -1.24603668   -0.55302437    1.61050114       8
Co     1.68146051   -1.74343610   -0.05362815       9
Cr     1.73627398   -0.15235689    1.62091741      10
Ni    -0.02508857    1.87982279   -1.87741624      11
Ni     1.89280471    1.84820214   -0.19241544      12
Ni     1.75735882    0.02470522   -1.84639793      13
Co     0.00907134   -1.80584195   -1.90668097      14
Cr    -1.19731181    2.11528530    2.88441054      15
Cr    -1.76643628    1.84512724   -0.01497018      16
Cr    -0.28603011   -0.04677405   -0.45468741      17
Co     0.23677975    1.54490773    1.36343746      18
