          18
Lattice="  24.8920   0.0000   0.0000   0.0000  24.8920   0.0000   0.0000   0.0000  24.8920 " ConfE="      -5943.0285" DelE="          0.0000"
Ni    -0.10102621   -0.02094425    3.57490149       1
Cr     0.05241555   -0.06950975   -3.40774847       2
Cr     3.41372164   -0.04370167   -0.05324193       3
Co    -3.61942143   -0.00580020    0.00821167       4
Co    -0.05313245    3.54055155    0.03110396       5
Co    -0.07911402   -3.63773803    0.05397870       6
Ni    -0.06602492   -1.83463987   -1.73451333       7
Ni     1.68061638   -1.80942150   -0.01507367       8
Ni    -1.81567111   -0.00049393    1.75703764       9
Co    -0.03371460    1.70487944   -1.75809482      10
Co     1.70753391    1.74173555    0.00523547      11
Ni    -1.85275379   -0.04986564   -1.71144971      12
Ni    -1.82872980   -1.82078704    0.05252688      13
Cr     1.63988703    0.01570739    1.74813196      14
Co    -0.09040473    1.77622212    1.77523453      15
Co    -0.02584397   -1.79594508    1.81646309      16
Cr    -1.78244783    1.77826896   -0.01167037      17
Co     0.00000000    0.00000000    0.00000000      18
          18
Lattice="  24.8920   0.0000   0.0000   0.0000  24.8920   0.0000   0.0000   0.0000  24.8920 " ConfE="      -5942.4895" DelE="          0.5389"
Ni    -0.09723931   -0.02198819    3.57295092       1
Cr     0.09262040   -0.09201429   -3.32041013       2
Cr     3.33168927   -0.06213733   -0.10085735       3
Co    -3.61350865   -0.00583865    0.00363258       4
Co    -0.07705929    3.61780246    0.06162692       5
Co    -0.09374930   -3.70961152    0.07622297       6
Ni    -0.09835238   -1.98630262   -1.74037966       7
Ni     1.68704596   -1.96792170    0.01566934       8
Ni    -1.77237938   -0.00248262    1.71182976       9
Co    -0.11851590    1.90614775   -1.76925096      10
Co     1.74532279    1.92755010    0.01361346      11
Ni    -1.78224349   -0.05473866   -1.66813338      12
Ni    -1.79409478   -1.82527807    0.05527114      13
Cr     1.59062593    0.01336165    1.66385822      14
Co    -0.05998491    1.73771808    1.70364649      15
Co    -0.00786403   -1.78828008    1.79728507      16
Cr    -1.73781230    1.76177229   -0.00173585      17
Co     0.64552262    0.01937209   -0.69746181      18
          18
Lattice="  24.8920   0.0000   0.0000   0.0000  24.8920   0.0000   0.0000   0.0000  24.8920 " ConfE="      -5943.2686" DelE="         -0.2401"
Ni    -0.10359131   -0.01550471    3.58996754       1
Cr    -0.02307485   -0.05043802   -3.47579196       2
Cr     3.48946906   -0.05244754   -0.00986168       3
Co    -3.63376076   -0.00476843    0.00768281       4
Co    -0.06389922    3.56494102    0.04549792       5
Co    -0.08176927   -3.64862690    0.05827573       6
Ni    -0.07210067   -1.82838761   -1.72327458       7
Ni     1.65720101   -1.80041610    0.01873748       8
Ni    -1.78804827    0.01227488    1.71866332       9
Co    -0.10262895    1.70977272   -1.68288418      10
Co     1.66346370    1.72151630    0.04508553      11
Ni    -1.81394343   -0.05151050   -1.66810041      12
Ni    -1.80599109   -1.80950842    0.05940481      13
Cr     1.60188685    0.02519018    1.69899109      14
Co    -0.09295791    1.74779949    1.74829534      15
Co    -0.01719815   -1.77065413    1.81787715      16
Cr    -1.78263541    1.78459886    0.00090781      17
Co     1.67568087   -0.00565985   -1.69044745      18
