          18
Lattice="  24.8920   0.0000   0.0000   0.0000  24.8920   0.0000   0.0000   0.0000  24.8920 " ConfE="      -5948.8382" DelE="          0.0000"
Ni    -3.39386486   -0.03712155   -0.01683807       1
Ni     0.05298405   -3.49467773    0.00585015       2
Co     3.63063563    0.08182115   -0.03336277       3
Cr     0.09078228    3.56816613    0.01701937       4
Co     0.03936257    0.00510083    3.54704335       5
Ni     0.08192677    0.07562033   -3.57494187       6
Cr    -1.73642348    0.02407040    1.77872872       7
Cr    -1.69713947    0.05379085   -1.80373304       8
Ni     0.00305460   -1.76304540    1.75079211       9
Co    -0.04522954   -1.68972362   -1.79379830      10
Co    -1.70999641    1.83701940    0.00485554      11
Ni     1.82619430   -1.74073516   -0.02788069      12
Co     1.82370871    1.81883880    0.01239947      13
Ni     0.05955111    1.78544363    1.77951746      14
Cr     0.09238390    1.81226494   -1.75287506      15
Ni     1.82759122   -0.00078028    1.78001375      16
Co     1.81016674    0.09362851   -1.78430361      17
Ni     0.00000000    0.00000000    0.00000000      18
          18
Lattice="  24.8920   0.0000   0.0000   0.0000  24.8920   0.0000   0.0000   0.0000  24.8920 " ConfE="      -5948.3501" DelE="          0.4881"
Ni    -3.37694871   -0.03943529    0.01007265       1
Ni     0.02962525   -3.45626072   -0.00023523       2
Co     3.62996042    0.07605912   -0.03720838       3
Cr     0.08175741    3.57022141    0.02016726       4
Co     0.04029900    0.00962498    3.58053103       5
Ni     0.09523746    0.09597923   -3.63418509       6
Cr    -1.74781219    0.06816594    1.97470619       7
Cr    -1.73337780    0.15188965   -1.94158356       8
Ni     0.09000739   -1.80387639    1.89043469       9
Co     0.04224452   -1.73198530   -1.97184988      10
Co    -1.65557009    1.75942713    0.01072392      11
Ni     1.73756394   -1.68994338   -0.03375398      12
Co     1.77477371    1.78076191    0.01588988      13
Ni     0.05523162    1.76194198    1.78059835      14
Cr     0.12570536    1.72646959   -1.68029830      15
Ni     1.80480491    0.00240572    1.78509075      16
Co     1.76649169    0.09050578   -1.77896167      17
Ni    -0.90469534   -0.85456608   -0.01331734      18
          18
Lattice="  24.8920   0.0000   0.0000   0.0000  24.8920   0.0000   0.0000   0.0000  24.8920 " ConfE="      -5948.8926" DelE="         -0.0544"
Ni    -3.47125806    0.01350098   -0.01315610       1
Ni     0.08289588   -3.53234863    0.01264912       2
Co     3.65299980    0.08221009   -0.03245181       3
Cr     0.09996092    3.59385004    0.01684744       4
Co     0.04629601    0.01202508    3.55914458       5
Ni     0.08811230    0.08639387   -3.57908546       6
Cr    -1.68496298    0.06136632    1.71068001       7
Cr    -1.64104058    0.08987965   -1.73694015       8
Ni     0.05184060   -1.73334831    1.75196639       9
Co     0.01963877   -1.66020480   -1.79534644      10
Co    -1.65374171    1.75723180   -0.02853713      11
Ni     1.80361237   -1.72366271   -0.02837389      12
Co     1.81234075    1.80799110    0.00618312      13
Ni     0.07162692    1.75615063    1.74440300      14
Cr     0.16125727    1.79159276   -1.71045007      15
Ni     1.81969612    0.00651981    1.75634159      16
Co     1.78285223    0.10384182   -1.74689528      17
Ni    -1.66957903   -1.73146310   -0.01297460      18
