          18
Lattice="  24.8920   0.0000   0.0000   0.0000  24.8920   0.0000   0.0000   0.0000  24.8920 " ConfE="      -5949.7729" DelE="          0.0000"
Ni    -0.03767704   -3.49528762    0.03481000       1
Ni    -0.05061426    0.03708849    3.62915431       2
Co    -0.05230492   -0.00465548   -3.40512449       3
Cr    -3.62699841   -0.00503548    0.05940285       4
Co     3.48271194    0.01470176    0.09063899       5
Co    -0.09341732    3.57276521    0.07547891       6
Ni    -1.77802821   -1.74999629    0.01773093       7
Co     1.70696625   -1.72589346    0.06800898       8
Cr    -1.74805149   -0.00045365   -1.73918937       9
Cr     1.64484297   -0.08695497   -1.73346169      10
Ni     1.73049831    0.03391615    1.85337065      11
Ni    -0.04045497    1.79851137    1.83133137      12
Co    -1.83838768    1.78525420    0.03246825      13
Co     1.72263495    1.78843950    0.04504854      14
Co    -0.05675094    1.84384162   -1.69648762      15
Cr    -0.06185350   -1.76630131    1.89116136      16
Cr    -1.81231993    0.01636620    1.78317380      17
Cr     0.00000000    0.00000000    0.00000000      18
          18
Lattice="  24.8920   0.0000   0.0000   0.0000  24.8920   0.0000   0.0000   0.0000  24.8920 " ConfE="      -5949.2083" DelE="          0.5646"
Ni    -0.04227231   -3.46626801    0.03636756       1
Ni    -0.06405608    0.03792852    3.61249970       2
Co    -0.04715466   -0.01487920   -3.38919490       3
Cr    -3.70902822    0.01607793    0.06832918       4
Co     3.53508224    0.02227370    0.10358825       5
Co    -0.08747071    3.57281412    0.05650596       6
Ni    -1.91621971   -1.80921541    0.04497548       7
Co     1.82682268   -1.79420369    0.13281221       8
Cr    -1.95207846    0.07232273   -1.67962539       9
Cr     1.93662218   -0.01472615   -1.76528619      10
Ni     1.68865182    0.01984983    1.78577744      11
Ni    -0.04741384    1.76845755    1.78470012      12
Co    -1.82370989    1.75835468    0.01222232      13
Co     1.71884369    1.75556631    0.02086805      14
Co    -0.03244106    1.72749177   -1.66268046      15
Cr    -0.08431918   -1.74339969    1.84803234      16
Cr    -1.73605546    0.00378166    1.60997115      17
Cr     0.03965873   -0.79613306   -0.83733351      18
          18
Lattice="  24.8920   0.0000   0.0000   0.0000  24.8920   0.0000   0.0000   0.0000  24.8920 " ConfE="      -5949.7554" DelE="          0.0175"
Ni    -0.03592055   -3.53049991    0.04863276       1
Ni    -0.05499871    0.04496987    3.63502757       2
Co    -0.05168735    0.04228670   -3.49687881       3
Cr    -3.64210392   -0.00195893    0.06131022       4
Co     3.52535613    0.02451441    0.10137615       5
Co    -0.09219286    3.59749273    0.06992011       6
Ni    -1.75641802   -1.71599898    0.04059158       7
Co     1.68553892   -1.70218786    0.07368306       8
Cr    -1.76214940    0.10626062   -1.64402115       9
Cr     1.68385057    0.02666284   -1.65453038      10
Ni     1.69032808    0.04658031    1.80413800      11
Ni    -0.04654842    1.79132780    1.81020111      12
Co    -1.83255567    1.78509791    0.04686657      13
Co     1.72145105    1.78939009    0.04528676      14
Co    -0.05470693    1.74775225   -1.65582624      15
Cr    -0.05182191   -1.73111444    1.85825058      16
Cr    -1.77590518    0.03869050    1.72884943      17
Cr     0.02423506   -1.64630333   -1.73590610      18
