          18
Lattice="  24.8920   0.0000   0.0000   0.0000  24.8920   0.0000   0.0000   0.0000  24.8920 " ConfE="      -5936.9459" DelE="          0.0000"
Co     0.01581516    3.57213531   -0.00886846       1
Co     0.01924720    0.01715901   -3.53071885       2
Ni    -3.52711077    0.00518868    0.05595291       3
Cr     3.50008641   -0.03277060    0.01903358       4
Co    -0.03231741   -0.02236476    3.59892484       5
Co     0.01492271   -3.58053108    0.04156363       6
Ni    -1.75556582    1.76487813   -0.01145918       7
Ni    -1.72489879    0.02454368   -1.74203782       8
Ni     1.74825978    1.77863621   -0.01640260       9
Co     1.74805997    0.00737754   -1.78381279      10
Ni    -0.01055177    1.75217041    1.80620605      11
Ni    -1.74722825   -1.78471466    0.04790416      12
Ni    -0.01096099   -1.78535034    1.82419271      13
Cr     0.01943043   -1.82351625   -1.78012827      14
Cr    -1.76458261   -0.00413739    1.85376864      15
Co     1.75363827   -0.01770134    1.79728918      16
Cr     1.73934563   -1.75118701   -0.00207092      17
Ni     0.00000000    0.00000000    0.00000000      18
          18
Lattice="  24.8920   0.0000   0.0000   0.0000  24.8920   0.0000   0.0000   0.0000  24.8920 " ConfE="      -5936.2495" DelE="          0.6964"
Co     0.01426779    3.53301939   -0.03347747       1
Co     0.02522204    0.00108033   -3.47864128       2
Ni    -3.60055808   -0.01623151    0.07153996       3
Cr     3.59739485   -0.05966548    0.02855991       4
Co    -0.02632998   -0.00488861    3.60060308       5
Co     0.00169307   -3.57731964    0.03070626       6
Ni    -1.91511852    1.77077240    0.03499376       7
Ni    -1.90782894   -0.02386913   -1.74952949       8
Ni     1.93533534    1.81725637    0.04979483       9
Co     1.97697672   -0.09509922   -1.79001468      10
Ni    -0.01064920    1.69998240    1.68886068      11
Ni    -1.75673735   -1.75111823    0.05082081      12
Ni    -0.02816803   -1.74286131    1.78564581      13
Cr     0.00656073   -1.72286965   -1.72587628      14
Cr    -1.77465263    0.00381477    1.82363609      15
Co     1.74782564   -0.02289319    1.73824854      16
Cr     1.68242594   -1.65132425    0.00593081      17
Ni     0.04991390    0.80130213   -0.84385353      18
          18
Lattice="  24.8920   0.0000   0.0000   0.0000  24.8920   0.0000   0.0000   0.0000  24.8920 " ConfE="      -5937.0286" DelE="         -0.0827"
Co     0.01388700    3.60559641    0.01777761       1
Co     0.01896381   -0.01756513   -3.57666594       2
Ni    -3.54139852   -0.00340087    0.06442262       3
Cr     3.54479339   -0.04767573    0.03181281       4
Co    -0.02228931   -0.02033012    3.61653521       5
Co     0.01034811   -3.59844396    0.04260768       6
Ni    -1.75566422    1.72543883    0.02656232       7
Ni    -1.70673971   -0.01081425   -1.70684706       8
Ni     1.75794747    1.75719558    0.01828870       9
Co     1.72414507   -0.04819632   -1.70780571      10
Ni    -0.01116453    1.71156467    1.76195904      11
Ni    -1.69786130   -1.74249675    0.05579203      12
Ni    -0.01224632   -1.76945505    1.81302869      13
Cr     0.04110935   -1.77202939   -1.74818937      14
Cr    -1.75209308   -0.01431374    1.85669587      15
Co     1.73032473   -0.03673319    1.75203439      16
Cr     1.69402963   -1.70126397    0.01861494      17
Ni    -0.00575068    1.77436964   -1.75191343      18
