          18
Lattice="  24.8920   0.0000   0.0000   0.0000  24.8920   0.0000   0.0000   0.0000  24.8920 " ConfE="      -5941.1877" DelE="          0.0000"
Co    -0.02682431    3.59716342    0.03503666       1
Ni    -0.07669043    0.05395617    3.60247733       2
Ni    -0.08330572    0.03200394   -3.51267755       3
Cr     3.44155105    0.01798800    0.08827710       4
Ni    -3.61872905    0.06896730    0.06613015       5
Cr    -0.13070899   -3.48761480    0.06272376       6
Ni    -0.05130928    1.83321078    1.79032387       7
Ni    -1.83982333    1.83378878    0.05850222       8
Co     1.70165217    0.00938364    1.76175148       9
Ni    -1.83808902    0.07392710    1.81220000      10
Cr     1.70847001    0.04734030   -1.66863913      11
Co     0.01777423    1.79847015   -1.66799360      12
Cr    -0.10753719   -1.74285869   -1.74696182      13
Cr     1.71192095   -1.78702613    0.03773673      14
Co    -1.81790792   -1.73931847    0.02497608      15
Co    -0.03604520   -1.77047954    1.80155576      16
Cr    -1.82152212    0.08129910   -1.68439585      17
Co     0.00000000    0.00000000    0.00000000      18
          18
Lattice="  24.8920   0.0000   0.0000   0.0000  24.8920   0.0000   0.0000   0.0000  24.8920 " ConfE="      -5940.6304" DelE="          0.5573"
Co    -0.00345112    3.53745812    0.02686143       1
Ni    -0.09693688    0.05212154    3.65206159       2
Ni    -0.09161197    0.00380041   -3.55761691       3
Cr     3.37742570    0.01300982    0.11086851       4
Ni    -3.61631890    0.07871580    0.06828555       5
Cr    -0.12121011   -3.52211679    0.07126204       6
Ni    -0.08321183    1.86077534    1.89789429       7
Ni    -1.78229476    1.80861846    0.05019145       8
Co     1.71804756   -0.05391381    1.96348937       9
Ni    -1.81064395    0.08351324    1.80769769      10
Cr     1.75570706   -0.04131752   -1.83783260      11
Co    -0.08952147    1.83632048   -1.87497449      12
Cr    -0.09993403   -1.69122224   -1.69507201      13
Cr     1.65570844   -1.73479441    0.04724086      14
Co    -1.76275351   -1.68699306    0.00776041      15
Co    -0.03416122   -1.74791552    1.76920078      16
Cr    -1.77044545    0.08028560   -1.65261860      17
Co     0.78111123    0.73962077   -0.03347461      18
          18
Lattice="  24.8920   0.0000   0.0000   0.0000  24.8920   0.0000   0.0000   0.0000  24.8920 " ConfE="      -5941.2274" DelE="         -0.0397"
Co    -0.04836440    3.61796331    0.03497973       1
Ni    -0.08114610    0.04846118    3.60997855       2
Ni    -0.10549243    0.00871369   -3.53726173       3
Cr     3.52154285   -0.02313486    0.07023243       4
Ni    -3.62582062    0.07390242    0.06152557       5
Cr    -0.12824905   -3.53864417    0.08257497       6
Ni    -0.07063810    1.82774819    1.79832497       7
Ni    -1.83183131    1.83201728    0.06656642       8
Co     1.66097545   -0.01758513    1.74578363       9
Ni    -1.82371867    0.07599601    1.78941105      10
Cr     1.57305355    0.01487258   -1.62026893      11
Co    -0.06390808    1.73908249   -1.67126664      12
Cr    -0.12223513   -1.73590103   -1.69012865      13
Cr     1.67688839   -1.73182465    0.06461974      14
Co    -1.77838362   -1.70622396    0.00373125      15
Co    -0.03966925   -1.75839305    1.75362056      16
Cr    -1.76368488    0.07341100   -1.63847574      17
Co     1.72049964    1.74243200    0.01181315      18
