          18
Lattice="  24.8920   0.0000   0.0000   0.0000  24.8920   0.0000   0.0000   0.0000  24.8920 " ConfE="      -5942.7057" DelE="          0.0000"
Co     0.00533414   -3.47643219    0.00143930       1
Ni     3.50170346    0.01905878   -0.01677505       2
Co     0.00902804    3.58141172    0.02059327       3
Ni    -3.59387733    0.02215023    0.00154053       4
Co    -0.00047468    0.04192221    3.53618330       5
Cr     0.03868053   -0.04085782   -3.51390730       6
Cr     0.04373675   -1.72002735    1.72007953       7
Co     0.04018477   -1.75803321   -1.72660352       8
Cr     1.79159554   -0.02088959    1.73408771       9
Co     1.71531451    0.03989240   -1.76379670      10
Cr    -1.82075029   -1.78692186   -0.03493451      11
Cr     1.76905160    1.86465249   -0.00152690      12
Ni    -1.77571957    1.80009879    0.01335664      13
Ni    -1.79893747    0.01344573    1.76394090      14
Ni    -1.80792225    0.01215073   -1.77676841      15
Cr     0.04317621    1.79264437    1.80130845      16
Cr     0.07008498    1.76136673   -1.82236443      17
Ni     0.00000000    0.00000000    0.00000000      18
          18
Lattice="  24.8920   0.0000   0.0000   0.0000  24.8920   0.0000   0.0000   0.0000  24.8920 " ConfE="      -5942.0982" DelE="          0.6075"
Co    -0.00160115   -3.45657050   -0.01380407       1
Ni     3.48409229   -0.00073469   -0.02463561       2
Co     0.01640000    3.58860991    0.01338445       3
Ni    -3.59352917    0.01614781    0.00179426       4
Co    -0.01962416    0.04596961    3.57079890       5
Cr     0.00128987   -0.01571379   -3.58080970       6
Cr    -0.11748886   -1.76724199    1.86484342       7
Co    -0.04394683   -1.74445000   -1.89160981       8
Cr     1.84597865    0.13231986    1.94213040       9
Co     1.70523927    0.07610894   -1.93825767      10
Cr    -1.71467282   -1.72373371   -0.02911991      11
Cr     1.71912311    1.72743877   -0.01982904      12
Ni    -1.74680144    1.77185594    0.01084039      13
Ni    -1.77278344    0.01304799    1.75138602      14
Ni    -1.77797684    0.01083846   -1.75677401      15
Cr     0.04160740    1.74172170    1.74584928      16
Cr     0.06864506    1.69508302   -1.76737726      17
Ni     1.06942228   -0.99541254    0.06592570      18
          18
Lattice="  24.8920   0.0000   0.0000   0.0000  24.8920   0.0000   0.0000   0.0000  24.8920 " ConfE="      -5942.6718" DelE="          0.0340"
Co    -0.03202427   -3.53864910    0.01318661       1
Ni     3.55443133    0.03665723   -0.00727907       2
Co     0.00584657    3.60809340    0.01020570       3
Ni    -3.60990100    0.02673138   -0.00265998       4
Co    -0.01813919    0.05266398    3.56015492       5
Cr     0.00183767   -0.01082308   -3.54836358       6
Cr    -0.02007925   -1.65442369    1.69435530       7
Co    -0.06657507   -1.68818181   -1.68532892       8
Cr     1.70670358    0.05725727    1.71902525       9
Co     1.66057211    0.08194351   -1.72342502      10
Cr    -1.75382517   -1.74409315   -0.04904792      11
Cr     1.72864848    1.78934805   -0.02051958      12
Ni    -1.74898540    1.78081686    0.00236984      13
Ni    -1.78145445    0.02066680    1.73219820      14
Ni    -1.80807123    0.03943418   -1.76648499      15
Cr     0.01694261    1.76849204    1.74971421      16
Cr     0.04948979    1.74133799   -1.78954333      17
Ni     1.73598483   -1.71343371   -0.01413025      18
