          18
Lattice="  24.8920   0.0000   0.0000   0.0000  24.8920   0.0000   0.0000   0.0000  24.8920 " ConfE="      -5924.5864" DelE="          0.0000"
Co    -0.03169344    0.01870889   -3.52173754       1
Ni     3.49210620   -0.00263356    0.04893961       2
Ni    -0.05211091   -0.00165748    3.59928658       3
Co    -3.62417756    0.02775505    0.10954410       4
Co    -0.05137949   -3.52199388    0.08719996       5
Co    -0.07188600    3.55474005    0.03871474       6
Ni    -0.03435528   -1.71730379   -1.73417627       7
Co    -0.04471251    1.75959131   -1.75315810       8
Co     1.79732766   -1.76889520    0.02069060       9
Ni     1.71765956    1.77245592    0.00310368      10
Co    -1.85447634    0.05280288   -1.69750126      11
Co     1.75532250   -0.01720975    1.86283114      12
Cr    -1.81756622    0.01621635    1.78233933      13
Ni    -1.83572948   -1.74085105    0.02960250      14
Co    -1.83684219    1.80958684    0.08146579      15
Cr    -0.02454086   -1.76508991    1.78278889      16
Ni    -0.03411735    1.76816755    1.80421421      17
Ni     0.00000000    0.00000000    0.00000000      18
          18
Lattice="  24.8920   0.0000   0.0000   0.0000  24.8920   0.0000   0.0000   0.0000  24.8920 " ConfE="      -5923.8641" DelE="          0.7223"
Co    -0.03755065    0.01324685   -3.48333682       1
Ni     3.44081079    0.00926858    0.03899021       2
Ni    -0.03759020    0.00287344    3.60591579       3
Co    -3.62590434    0.02644312    0.09621118       4
Co    -0.04558415   -3.56343209    0.09754464       5
Co    -0.09299794    3.60699373    0.05035906       6
Ni    -0.10421537   -1.88700097   -1.76536438       7
Co    -0.12293696    1.90891173   -1.76316024       8
Co     1.88503395   -1.92907084    0.08708105       9
Ni     1.73788443    1.92739227    0.07486125      10
Co    -1.77558767    0.05355890   -1.66542853      11
Co     1.68127906   -0.03185766    1.78050544      12
Cr    -1.68216469    0.03249845    1.67101888      13
Ni    -1.79974950   -1.73751464    0.02203796      14
Co    -1.80984150    1.79144370    0.08612369      15
Cr     0.01914029   -1.70460536    1.71236929      16
Ni    -0.02215361    1.78216576    1.79103145      17
Ni     0.88170499   -0.00999519   -0.85671980      18
          18
Lattice="  24.8920   0.0000   0.0000   0.0000  24.8920   0.0000   0.0000   0.0000  24.8920 " ConfE="      -5924.5686" DelE="          0.0178"
Co    -0.07473750    0.03005406   -3.55678436       1
Ni     3.50734462   -0.01014488    0.06833911       2
Ni    -0.05040858   -0.00390548    3.62558881       3
Co    -3.64536582    0.02413963    0.10797736       4
Co    -0.06151184   -3.55090242    0.08956305       5
Co    -0.08207599    3.58054315    0.05390830       6
Ni    -0.06962541   -1.70424297   -1.68240355       7
Co    -0.10304239    1.77742152   -1.71046547       8
Co     1.75290141   -1.77163312    0.06278618       9
Ni     1.68339215    1.77839553    0.03936061      10
Co    -1.81158369    0.06742707   -1.66269842      11
Co     1.68955050   -0.03780368    1.80977060      12
Cr    -1.76623226    0.02237474    1.74454121      13
Ni    -1.81140314   -1.70894808    0.04435579      14
Co    -1.83895546    1.78673600    0.10056381      15
Cr     0.01021465   -1.69520392    1.73544716      16
Ni    -0.04348342    1.73970594    1.78365578      17
Ni     1.66175372    0.03513120   -1.70165657      18
