          18
Lattice="  24.8920   0.0000   0.0000   0.0000  24.8920   0.0000   0.0000   0.0000  24.8920 " ConfE="      -5936.1275" DelE="          0.0000"
Ni     3.57759865   -0.09369601    0.00801672       1
Co    -3.46422322    0.02364580    0.05841494       2
Cr     0.01860662    3.41965021    0.03118199       3
Ni     0.02849061   -0.07098677    3.59899790       4
Co     0.07307900   -3.65548196    0.07142055       5
Co     0.05130616   -0.11165496   -3.56600352       6
Co    -1.77189949    0.05417974    1.76758301       7
Co    -0.01082913    1.73613496    1.73363587       8
Ni     1.81419731   -0.10758059   -1.74076317       9
Cr    -1.70582742   -0.03604071   -1.69132945      10
Cr     0.01314000    1.67730296   -1.67880941      11
Ni     0.00824554   -1.79403240    1.79806246      12
Ni    -1.74396372   -1.85711434    0.04030337      13
Ni     0.04731076   -1.85649099   -1.74213381      14
Co     1.82058780   -0.05249593    1.77815828      15
Co     1.81831323    1.72312186    0.02843290      16
Cr     1.78725468   -1.88570646    0.09652973      17
Co     0.00000000    0.00000000    0.00000000      18
          18
Lattice="  24.8920   0.0000   0.0000   0.0000  24.8920   0.0000   0.0000   0.0000  24.8920 " ConfE="      -5935.7433" DelE="          0.3841"
Ni     3.58004343   -0.08882772    0.00435442       1
Co    -3.38212126    0.03954029    0.05649172       2
Cr     0.01015300    3.34552910    0.01862895       3
Ni     0.03634930   -0.07677375    3.64304725       4
Co     0.07362670   -3.65573292    0.07286294       5
Co     0.06432545   -0.12235191   -3.60643066       6
Co    -1.79893480    0.02654896    1.90941080       7
Co     0.01590632    1.74232126    1.85125387       8
Ni     1.77909597   -0.09249965   -1.73061701       9
Cr    -1.76754504   -0.08403830   -1.88104359      10
Cr     0.02284442    1.72041999   -1.82866180      11
Ni    -0.00592714   -1.74791579    1.77646798      12
Ni    -1.72652260   -1.82528690    0.02496400      13
Ni     0.03853510   -1.82567393   -1.73247197      14
Co     1.78816240   -0.05030813    1.74890827      15
Co     1.74894133    1.68542308    0.01411803      16
Cr     1.75121834   -1.83948600    0.08895879      17
Co    -0.55639329    0.48208029   -0.04433125      18
          18
Lattice="  24.8920   0.0000   0.0000   0.0000  24.8920   0.0000   0.0000   0.0000  24.8920 " ConfE="      -5936.4852" DelE="         -0.3577"
Ni     3.59306124   -0.09830622    0.00810177       1
Co    -3.53131154   -0.01435111    0.05387954       2
Cr     0.05959198    3.47747010    0.02458491       3
Ni     0.03905425   -0.08132192    3.62480589       4
Co     0.07689346   -3.66162135    0.07447021       5
Co     0.06273435   -0.11912678   -3.58132425       6
Co    -1.75886910    0.00913938    1.79147471       7
Co     0.02306634    1.68278774    1.74172468       8
Ni     1.79132785   -0.11898956   -1.70748570       9
Cr    -1.69440682   -0.07438311   -1.71960055      10
Cr     0.05222310    1.65290212   -1.67410188      11
Ni     0.02647839   -1.75641899    1.76342537      12
Ni    -1.72291351   -1.79976559    0.03198122      13
Ni     0.05547803   -1.83692687   -1.71567838      14
Co     1.82341124   -0.06059829    1.75370078      15
Co     1.74555192    1.68155161    0.00938918      16
Cr     1.80885664   -1.91070327    0.09354962      17
Co    -1.68379298    1.64083947   -0.02024657      18
