          18
Lattice="  24.8920   0.0000   0.0000   0.0000  24.8920   0.0000   0.0000   0.0000  24.8920 " ConfE="      -5945.4371" DelE="          0.0000"
Co    -0.00240978    3.60971376    0.07695251       1
Co     0.01193776    0.06189525   -3.42252438       2
Ni     0.02855150   -3.56957500    0.07045650       3
Co     0.00779246   -0.03850609    3.64771708       4
Cr    -3.47923063    0.02783628   -0.00784865       5
Co     3.59305158    0.01071802    0.06686967       6
Ni    -1.71148736    1.79080324    0.00409859       7
Ni     1.75172047    1.78447683    0.03989141       8
Cr    -1.67430959    0.04242831   -1.76395304       9
Cr     1.78266644    0.03241580   -1.67494074      10
Co    -0.01467138    1.74055509    1.87090399      11
Ni     0.05009378   -1.81153305   -1.72581190      12
Co    -0.00477555   -1.76751224    1.81207656      13
Cr    -1.69904373    0.02910135    1.76307231      14
Ni     1.78193401   -0.01012910    1.82192388      15
Cr    -1.74192118   -1.72307009   -0.00719786      16
Cr     1.80588400   -1.72246954    0.06223893      17
Co     0.00000000    0.00000000    0.00000000      18
          18
Lattice="  24.8920   0.0000   0.0000   0.0000  24.8920   0.0000   0.0000   0.0000  24.8920 " ConfE="      -5944.7424" DelE="          0.6947"
Co    -0.00384778    3.53262582    0.05034499       1
Co     0.02182259    0.05145814   -3.46003464       2
Ni     0.02819199   -3.57815286    0.05865477       3
Co     0.01378407   -0.03569135    3.64287865       4
Cr    -3.59178135   -0.00005358    0.01994569       5
Co     3.64633776    0.00664273    0.08139517       6
Ni    -1.85805638    1.81334931    0.05719755       7
Ni     1.87654718    1.79633293    0.08322065       8
Cr    -1.88899742   -0.02966629   -1.75273812       9
Cr     1.93724536    0.00959583   -1.70217077      10
Co    -0.02755790    1.70288791    1.79894868      11
Ni     0.04685882   -1.73473640   -1.70902923      12
Co    -0.00848351   -1.73174496    1.76214629      13
Cr    -1.66800906    0.05215583    1.70820958      14
Ni     1.76959717   -0.00438524    1.78246399      15
Cr    -1.62773773   -1.62661950    0.02136029      16
Cr     1.74666998   -1.66132335    0.03643270      17
Co     0.00045577    0.85348027   -1.01950545      18
          18
Lattice="  24.8920   0.0000   0.0000   0.0000  24.8920   0.0000   0.0000   0.0000  24.8920 " ConfE="      -5945.1765" DelE="          0.2606"
Co    -0.00270292    3.60501802    0.08464365       1
Co     0.06026763   -0.00793481   -3.51811254       2
Ni     0.02411666   -3.58837360    0.07300629       3
Co     0.01114483   -0.04287650    3.66400876       4
Cr    -3.53214998    0.01003151   -0.00893995       5
Co     3.60598394    0.01407627    0.07365110       6
Ni    -1.72160736    1.76045892    0.04715551       7
Ni     1.75729223    1.77226744    0.08725006       8
Cr    -1.64019214    0.03265568   -1.70186192       9
Cr     1.72155121    0.03453525   -1.60548505      10
Co    -0.02599503    1.71504074    1.85956961      11
Ni     0.04865343   -1.76679844   -1.69173110      12
Co    -0.01636152   -1.73208925    1.77155534      13
Cr    -1.66523374    0.02623953    1.72681698      14
Ni     1.76336882   -0.01213017    1.80689067      15
Cr    -1.67650825   -1.66840655    0.02844480      16
Cr     1.76387313   -1.69803095    0.07959291      17
Co     0.02689415    1.69086010   -1.70031977      18
