          18
Lattice="  24.8920   0.0000   0.0000   0.0000  24.8920   0.0000   0.0000   0.0000  24.8920 " ConfE="      -5938.0444" DelE="          0.0000"
Cr    -0.02091546   -0.05756432    3.57753427       1
Ni    -0.03047893    3.51157170   -0.03762421       2
Co    -0.00205963   -0.08563938   -3.60812618       3
Co    -0.00829618   -3.57013660   -0.01395256       4
Cr     3.45440774   -0.03608678    0.00810812       5
Co    -3.59987419    0.00101789   -0.02714936       6
Cr     1.69035240    0.02957031    1.86584394       7
Ni    -1.72651331    0.02289159    1.76542507       8
Ni     1.70903517    1.74477755   -0.00112469       9
Ni    -1.81223392    1.73146380   -0.03308323      10
Co     0.02028483   -1.82049883    1.74938755      11
Ni    -0.03997482    1.73281610   -1.85133379      12
Cr    -0.00943873   -1.79274640   -1.81052418      13
Cr     1.74276852   -1.83746423    0.04638380      14
Ni    -1.78184243   -1.78425917   -0.01044204      15
Ni     1.73481336   -0.02498449   -1.80180610      16
Ni    -1.80313284   -0.03611491   -1.81510801      17
Ni     0.00000000    0.00000000    0.00000000      18
          18
Lattice="  24.8920   0.0000   0.0000   0.0000  24.8920   0.0000   0.0000   0.0000  24.8920 " ConfE="      -5937.3238" DelE="          0.7206"
Cr    -0.02902968   -0.01394166    3.47447285       1
Ni    -0.02472384    3.45295019   -0.01702814       2
Co    -0.00111945   -0.08255058   -3.60979446       3
Co    -0.01136274   -3.56803625    0.00163227       4
Cr     3.52603368   -0.03720105   -0.00434326       5
Co    -3.66211659   -0.01064160   -0.03620853       6
Cr     1.91019600   -0.03388955    1.90316622       7
Ni    -1.93989977   -0.04798571    1.77643239       8
Ni     1.87283536    1.78374017   -0.06882975       9
Ni    -1.92853543    1.73305897   -0.04807976      10
Co     0.00838414   -1.76082443    1.71771069      11
Ni    -0.05390404    1.68759897   -1.76927344      12
Cr    -0.02393410   -1.71065891   -1.72690867      13
Cr     1.69982708   -1.73903118    0.06634573      14
Ni    -1.80118594   -1.77428703   -0.00279082      15
Ni     1.72906099   -0.01713837   -1.77120796      16
Ni    -1.81832624   -0.04013751   -1.79208866      17
Ni     0.04133588    0.62281167    0.76573459      18
          18
Lattice="  24.8920   0.0000   0.0000   0.0000  24.8920   0.0000   0.0000   0.0000  24.8920 " ConfE="      -5938.0856" DelE="         -0.0412"
Cr    -0.01832434   -0.10430576    3.62581064       1
Ni    -0.02542160    3.52624559   -0.04348583       2
Co    -0.00328173   -0.08758182   -3.62604034       3
Co    -0.00646341   -3.59053806   -0.01035928       4
Cr     3.49670013   -0.03742078   -0.01262825       5
Co    -3.62162293   -0.00283704   -0.03607910       6
Cr     1.72734778   -0.05242662    1.82941439       7
Ni    -1.76103868   -0.03835962    1.73886172       8
Ni     1.68631908    1.68032211   -0.01618275       9
Ni    -1.80188027    1.69782410   -0.03910547      10
Co     0.04565278   -1.73693652    1.68977350      11
Ni    -0.05094359    1.70903949   -1.82149632      12
Cr    -0.01321522   -1.76847528   -1.78679887      13
Cr     1.72605146   -1.81261576    0.03589186      14
Ni    -1.75307446   -1.77216780   -0.02411575      15
Ni     1.69558902   -0.04448993   -1.76613588      16
Ni    -1.78439319   -0.04703077   -1.80267155      17
Ni    -0.03951950    1.69271196    1.76203367      18
