          18
Lattice="  24.8920   0.0000   0.0000   0.0000  24.8920   0.0000   0.0000   0.0000  24.8920 " ConfE="      -5949.4607" DelE="          0.0000"
Ni     0.03262242   -3.51056608    0.05708373       1
Ni     0.07560433    0.03307767   -3.48512163       2
Cr    -3.45386039    0.04682942    0.05238666       3
Cr     0.05095548   -0.14684456    3.64063087       4
Co     3.62910896    0.04382650    0.05061529       5
Co     0.05978481    3.58025254    0.08764445       6
Ni     0.05747373   -1.74851283    1.79884429       7
Ni    -1.70976842    0.00014252    1.77499260       8
Ni     1.85050258   -1.74060551    0.03829945       9
Ni     0.07823103    1.74981410    1.86033567      10
Ni     1.83045073    1.79365101    0.04534581      11
Cr     0.02492510   -1.75664245   -1.72353720      12
Cr    -1.74161371    0.03217371   -1.73180654      13
Cr     1.88042317    0.01552768    1.76475136      14
Cr    -1.72152592    1.88757487    0.06172400      15
Co     1.83393709    0.03760446   -1.72751337      16
Cr     0.02033859    1.85382784   -1.71973104      17
Ni     0.00000000    0.00000000    0.00000000      18
          18
Lattice="  24.8920   0.0000   0.0000   0.0000  24.8920   0.0000   0.0000   0.0000  24.8920 " ConfE="      -5948.9091" DelE="          0.5516"
Ni     0.00828929   -3.44054346    0.04419361       1
Ni     0.06574356    0.03283214   -3.55677257       2
Cr    -3.41050968    0.03111556    0.07213637       3
Cr     0.07420025   -0.11057807    3.72806088       4
Co     3.62833684    0.03546847    0.04364064       5
Co     0.04107564    3.57651623    0.08950777       6
Ni     0.09627854   -1.74940245    1.92885441       7
Ni    -1.70286342    0.03303724    1.92745336       8
Ni     1.77293253   -1.70227460    0.04163805       9
Ni     0.07865691    1.72450468    1.86681658      10
Ni     1.77263293    1.74166798    0.04757029      11
Cr     0.15005692   -1.76142056   -1.89899131      12
Cr    -1.84514884    0.11617270   -1.92700483      13
Cr     1.85454957    0.00879435    1.77418355      14
Cr    -1.67866088    1.76988595    0.06125644      15
Co     1.76173908    0.01812437   -1.71871878      16
Cr     0.00962743    1.70949432   -1.67582539      17
Ni    -0.84222062   -0.83809749   -0.07071122      18
          18
Lattice="  24.8920   0.0000   0.0000   0.0000  24.8920   0.0000   0.0000   0.0000  24.8920 " ConfE="      -5949.4406" DelE="          0.0201"
Ni     0.05482092   -3.52783343    0.03683812       1
Ni     0.08998418    0.04262086   -3.54212135       2
Cr    -3.50751983    0.06437221    0.05589969       3
Cr     0.06294017   -0.14043703    3.67861168       4
Co     3.65590183    0.04582323    0.04692245       5
Co     0.06350838    3.59415315    0.08965360       6
Ni     0.09492766   -1.71144590    1.80077144       7
Ni    -1.67569903    0.03015828    1.78079279       8
Ni     1.83176116   -1.71379249    0.05110258       9
Ni     0.09762706    1.71897495    1.84017442      10
Ni     1.82727670    1.77651117    0.05476031      11
Cr     0.11420372   -1.61072208   -1.70634727      12
Cr    -1.65649881    0.07619315   -1.71836128      13
Cr     1.90262576    0.03160662    1.76838812      14
Cr    -1.68784553    1.81986493    0.04914495      15
Co     1.78797885    0.03707795   -1.69499979      16
Cr     0.05579695    1.75785722   -1.67094261      17
Ni    -1.65815595   -1.67724356    0.01839062      18
