          18
Lattice="  24.8920   0.0000   0.0000   0.0000  24.8920   0.0000   0.0000   0.0000  24.8920 " ConfE="      -5934.8120" DelE="          0.0000"
Ni     0.01516935   -0.01713918    3.48263076       1
Ni    -3.45092551    0.00186637    0.02239039       2
Ni     0.07115107    0.00112409   -3.59411339       3
Ni     0.08509674    3.52610298   -0.04578032       4
Co     3.59433604    0.00557517   -0.02919607       5
Cr     0.01677978   -3.50929318   -0.03966871       6
Co    -1.67466970   -1.79913767   -0.03874637       7
Co     0.08768811   -1.80769538    1.71698278       8
Cr    -0.04215983    1.72676316    1.72257418       9
Co    -1.72074842    1.78803438    0.01238925      10
Ni     0.04439104   -1.75924087   -1.83486832      11
Cr     1.83776924    0.02520671    1.70629498      12
Cr     1.78695708   -1.72187916   -0.04531117      13
Cr    -1.72620047    0.07027746   -1.79958881      14
Co     1.81721189    0.01641511   -1.76652817      15
Cr     1.84399707    1.72994921   -0.03850758      16
Cr     0.05441131    1.79451362   -1.78226129      17
Ni     0.00000000    0.00000000    0.00000000      18
          18
Lattice="  24.8920   0.0000   0.0000   0.0000  24.8920   0.0000   0.0000   0.0000  24.8920 " ConfE="      -5934.0577" DelE="          0.7543"
Ni     0.03043744   -0.00872677    3.51394449       1
Ni    -3.42797897    0.00033342    0.01120644       2
Ni     0.06752622   -0.00235658   -3.60931897       3
Ni     0.09960072    3.57200380   -0.08648867       4
Co     3.59031032    0.00660157   -0.01547813       5
Cr     0.05351992   -3.60446579   -0.05938934       6
Co    -1.63637225   -1.92302423   -0.10336935       7
Co     0.15719130   -1.98630954    1.71376074       8
Cr     0.06289123    1.91846859    1.73327647       9
Co    -1.71511438    1.88177615   -0.09110629      10
Ni     0.05314142   -1.74676462   -1.81911382      11
Cr     1.70148550    0.00000842    1.68937663      12
Cr     1.69812469   -1.62117125   -0.04134480      13
Cr    -1.66588090    0.06102622   -1.72879090      14
Co     1.77591726    0.01884175   -1.73486183      15
Cr     1.75777778    1.62925441   -0.04947870      16
Cr     0.02478230    1.76303973   -1.75144346      17
Ni    -1.12427304   -0.01716177    1.23392704      18
          18
Lattice="  24.8920   0.0000   0.0000   0.0000  24.8920   0.0000   0.0000   0.0000  24.8920 " ConfE="      -5934.4476" DelE="          0.3644"
Ni     0.04309569   -0.01892854    3.53893154       1
Ni    -3.52149391    0.00263947   -0.01296165       2
Ni     0.07021744    0.00282035   -3.59919054       3
Ni     0.09875339    3.54083801   -0.05440778       4
Co     3.63394941    0.00342002   -0.03212790       5
Cr     0.02848749   -3.54847607   -0.05317621       6
Co    -1.65032637   -1.76084701   -0.06589388       7
Co     0.11607575   -1.77097411    1.65632913       8
Cr     0.01398598    1.67554919    1.61560547       9
Co    -1.68520313    1.75669111   -0.04442289      10
Ni     0.04628961   -1.73334288   -1.81080114      11
Cr     1.77207223   -0.01583433    1.67583189      12
Cr     1.75464039   -1.65123610   -0.06231932      13
Cr    -1.69076562    0.06686697   -1.73934079      14
Co     1.78828380    0.02022225   -1.72546870      15
Cr     1.83232145    1.66004883   -0.05118902      16
Cr     0.05791711    1.74967723   -1.72928437      17
Ni    -1.69860006   -0.01363491    1.72259594      18
