          18
Lattice="  24.8920   0.0000   0.0000   0.0000  24.8920   0.0000   0.0000   0.0000  24.8920 " ConfE="      -5943.2593" DelE="          0.0000"
Ni    -0.02485207   -3.47261306    0.01357227       1
Ni    -3.61187142    0.03672388    0.01171911       2
Co     3.37078283    0.05435660   -0.03481179       3
Cr    -0.04452016   -0.01736020    3.55376064       4
Co    -0.05571266    0.06191443   -3.55306733       5
Co     0.00704384    3.58774625   -0.01475928       6
Ni    -0.04729156   -1.74781379    1.79087814       7
Co    -0.01126187   -1.69541201   -1.77051491       8
Ni    -0.08161813    1.82101452    1.75088666       9
Ni    -0.06076943    1.80110963   -1.74564788      10
Co     1.68236860    0.06468672    1.78342650      11
Cr     1.75604306    0.07824083   -1.74614264      12
Ni    -1.84286820   -1.74519154    0.00901960      13
Ni    -1.82895918    0.03302525    1.77928613      14
Ni    -1.83290636    0.03713912   -1.74105624      15
Cr     1.73739274    1.86111663   -0.01530447      16
Cr    -1.85432361    1.86425786    0.02010382      17
Ni     0.00000000    0.00000000    0.00000000      18
          18
Lattice="  24.8920   0.0000   0.0000   0.0000  24.8920   0.0000   0.0000   0.0000  24.8920 " ConfE="      -5942.7128" DelE="          0.5465"
Ni    -0.02947863   -3.46986809    0.00467702       1
Ni    -3.60658569    0.03695176    0.01835360       2
Co     3.33563536    0.07654227   -0.01154310       3
Cr    -0.05987319   -0.01014200    3.60694197       4
Co    -0.07597075    0.06220785   -3.57683842       5
Co     0.01202885    3.59448155   -0.01359637       6
Ni    -0.06474784   -1.74608179    1.85113771       7
Co    -0.07700331   -1.72974117   -1.88882042       8
Ni    -0.07838838    1.81180953    1.75301591       9
Ni    -0.05017334    1.75551755   -1.71082360      10
Co     1.68927495    0.14379213    2.00621846      11
Cr     1.78385389    0.13437861   -2.01596799      12
Ni    -1.77645156   -1.70297854    0.00553988      13
Ni    -1.81699059    0.04018422    1.78726303      14
Ni    -1.83154468    0.04086982   -1.74299079      15
Cr     1.71411891    1.83714807    0.00863170      16
Cr    -1.80775580    1.83087279    0.02923543      17
Ni     0.75249165   -0.51538950   -0.06228635      18
          18
Lattice="  24.8920   0.0000   0.0000   0.0000  24.8920   0.0000   0.0000   0.0000  24.8920 " ConfE="      -5942.7762" DelE="          0.4831"
Ni     0.00665055   -3.41095810    0.00156869       1
Ni    -3.60211639    0.03788606    0.02106245       2
Co     3.37984381    0.06895152   -0.00745893       3
Cr    -0.06972211   -0.00766993    3.63063031       4
Co    -0.08038758    0.06929392   -3.59226062       5
Co     0.01285289    3.59184207   -0.01523203       6
Ni    -0.08246827   -1.75127198    1.89215695       7
Co    -0.10190665   -1.71523725   -1.92138420       8
Ni    -0.07809019    1.79975994    1.74349694       9
Ni    -0.07246114    1.78258822   -1.74074936      10
Co     1.68086362    0.13093636    1.99226828      11
Cr     1.75932262    0.14959617   -1.97857477      12
Ni    -1.77202960   -1.69969671    0.00749944      13
Ni    -1.80186205    0.03593751    1.77967115      14
Ni    -1.82001903    0.04609388   -1.73458926      15
Cr     1.67048186    1.72500795   -0.01743222      16
Cr    -1.80280405    1.83192619    0.02803408      17
Ni     0.95449955   -0.82946932   -0.04704963      18
