          18
Lattice="  24.8920   0.0000   0.0000   0.0000  24.8920   0.0000   0.0000   0.0000  24.8920 " ConfE="      -5946.7238" DelE="          0.0000"
Ni     3.48071275   -0.03189619   -0.01618750       1
Ni    -0.03039151    3.45077085   -0.05335756       2
Ni    -0.06469341   -0.03159086    3.50604164       3
Ni    -0.04524967   -3.58641084   -0.01144879       4
Co    -3.60485040   -0.06232359    0.00634497       5
Co    -0.01924637   -0.06534567   -3.57693043       6
Ni     1.72225284    0.00086564    1.74089755       7
Cr    -0.01786116    1.63876733   -1.79096538       8
Cr     1.77558581   -0.00655101   -1.82178058       9
Cr    -0.03252281    1.81828292    1.76294651      10
Ni    -1.81701652   -1.82038222   -0.01563298      11
Co    -1.83716527    1.70664217   -0.01305741      12
Co    -1.80423810   -0.05043074   -1.78847324      13
Cr     1.74382355   -1.84428034   -0.03750472      14
Cr    -1.82337324    0.00712501    1.71477868      15
Cr    -0.04670724   -1.73198580   -1.83546908      16
Cr    -0.04878599   -1.80864978    1.74112469      17
Ni     0.00000000    0.00000000    0.00000000      18
          18
Lattice="  24.8920   0.0000   0.0000   0.0000  24.8920   0.0000   0.0000   0.0000  24.8920 " ConfE="      -5946.0570" DelE="          0.6667"
Ni     3.45444551   -0.03777150   -0.01076357       1
Ni    -0.01711339    3.39089970   -0.05014290       2
Ni    -0.06887030   -0.05615032    3.56707255       3
Ni    -0.04516423   -3.58667924   -0.00980549       4
Co    -3.62165494   -0.06177465    0.01853165       5
Co    -0.03938981   -0.07729758   -3.63340490       6
Ni     1.74859045   -0.08309385    1.89509835       7
Cr    -0.10608338    1.59334708   -1.94082100       8
Cr     1.81963271   -0.07041069   -1.97280858       9
Cr    -0.07187442    1.83751061    1.95690780      10
Ni    -1.80968415   -1.80101177   -0.00728733      11
Co    -1.76150709    1.64443379    0.01417928      12
Co    -1.77613549   -0.04257373   -1.76877064      13
Cr     1.67138365   -1.74218264   -0.02942440      14
Cr    -1.72440005    0.03039748    1.67308325      15
Cr    -0.05962740   -1.61297859   -1.73859889      16
Cr    -0.04994426   -1.72428514    1.68172258      17
Ni     0.98751358    0.96240879   -0.00937568      18
          18
Lattice="  24.8920   0.0000   0.0000   0.0000  24.8920   0.0000   0.0000   0.0000  24.8920 " ConfE="      -5946.5174" DelE="          0.2064"
Ni     3.53254569   -0.06262252   -0.01306834       1
Ni    -0.05954528    3.49413772   -0.04649175       2
Ni    -0.07192874   -0.04235709    3.51711380       3
Ni    -0.05065865   -3.60048448   -0.00708733       4
Co    -3.64601749   -0.06685367    0.01675021       5
Co    -0.02269054   -0.06896775   -3.59093028       6
Ni     1.68958154   -0.04872938    1.72577567       7
Cr    -0.10752550    1.52252112   -1.69197796       8
Cr     1.77389580   -0.04462615   -1.83748532       9
Cr    -0.08761852    1.70858865    1.69934838      10
Ni    -1.83743810   -1.81611007   -0.00854262      11
Co    -1.78599401    1.65705766    0.01343457      12
Co    -1.79928277   -0.06240863   -1.76313091      13
Cr     1.72209967   -1.80046045   -0.04270511      14
Cr    -1.81144926   -0.00917360    1.69340176      15
Cr    -0.06397641   -1.62035609   -1.68835478      16
Cr    -0.06177262   -1.72115011    1.64837481      17
Ni     1.70725822    1.67197565   -0.03626677      18
