          18
Lattice="  24.8920   0.0000   0.0000   0.0000  24.8920   0.0000   0.0000   0.0000  24.8920 " ConfE="      -5949.5276" DelE="          0.0000"
Ni     3.50670177   -0.00746369   -0.08221364       1
Ni    -0.01004762    3.53372814   -0.06401264       2
Co     0.04203270   -0.03670006   -3.59926106       3
Co    -0.00551121   -3.55258982   -0.01215811       4
Cr    -0.09451407    0.06439489    3.45054306       5
Cr    -3.55169811   -0.07216545    0.01212209       6
Ni     1.76456924   -1.74605848   -0.06371940       7
Ni     0.04095187   -1.75276038   -1.81797983       8
Ni     0.04811939    1.71130245   -1.82256566       9
Ni     1.78116061    0.02996562    1.75934336      10
Co     1.74636401    1.75750289   -0.01252423      11
Ni    -1.77314414    1.73878842   -0.06154045      12
Cr     0.02721519   -1.79662213    1.75642758      13
Cr    -1.74548621   -1.76187753   -0.00581408      14
Co    -1.77727094   -0.01752538    1.71569248      15
Cr    -1.76018053   -0.05552862   -1.82324061      16
Cr    -0.03030408    1.83711944    1.77126794      17
Co     0.00000000    0.00000000    0.00000000      18
          18
Lattice="  24.8920   0.0000   0.0000   0.0000  24.8920   0.0000   0.0000   0.0000  24.8920 " ConfE="      -5948.3374" DelE="          1.1902"
Ni     3.48239296   -0.01650683   -0.08148978       1
Ni    -0.01969021    3.57417628   -0.05199140       2
Co     0.04306927   -0.02718994   -3.55226451       3
Co    -0.02877610   -3.61686312    0.01038072       4
Cr    -0.06650708    0.07305959    3.49111005       5
Cr    -3.55508861   -0.10809104   -0.01250897       6
Ni     1.77446311   -1.87461695    0.00837578       7
Ni     0.01532181   -1.93579946   -1.84472271       8
Ni    -0.01534568    1.92935510   -1.88627979       9
Ni     1.75590056    0.02735960    1.69951761      10
Co     1.76103848    1.87326036    0.05208253      11
Ni    -1.69709220    1.67558556   -0.08503709      12
Cr     0.02556503   -1.70567148    1.70593074      13
Cr    -1.66177697   -1.69387592   -0.04782444      14
Co    -1.71687285   -0.03110156    1.67518591      15
Cr    -1.57762797   -0.05006636   -1.82220398      16
Cr     0.00633982    1.76829203    1.71345552      17
Co     0.99999445    0.03342470   -1.10677509      18
          18
Lattice="  24.8920   0.0000   0.0000   0.0000  24.8920   0.0000   0.0000   0.0000  24.8920 " ConfE="      -5949.2804" DelE="          0.2473"
Ni     3.54262489    0.01033665   -0.04679841       1
Ni    -0.01548204    3.54255048   -0.06100076       2
Co     0.01959269   -0.04215961   -3.64420413       3
Co    -0.01028508   -3.56852318   -0.01062506       4
Cr    -0.08788119    0.07066591    3.49366716       5
Cr    -3.58540720   -0.09233258    0.01005883       6
Ni     1.71887632   -1.72432940   -0.03686011       7
Ni     0.01778233   -1.76740013   -1.81256956       8
Ni     0.02561998    1.71522652   -1.81398690       9
Ni     1.73494978    0.03470817    1.72506359      10
Co     1.71549523    1.74014255   -0.01465291      11
Ni    -1.72782988    1.68046804   -0.06192035      12
Cr     0.01295334   -1.76571384    1.74953793      13
Cr    -1.72055428   -1.71655759   -0.00968400      14
Co    -1.71029472   -0.04119904    1.67144330      15
Cr    -1.70151447   -0.06351636   -1.80966130      16
Cr    -0.02315963    1.82161365    1.76832150      17
Co     1.78973986   -0.02656399   -1.87181799      18
