          18
Lattice="  24.8920   0.0000   0.0000   0.0000  24.8920   0.0000   0.0000   0.0000  24.8920 " ConfE="      -5923.7748" DelE="          0.0000"
Co     3.51768914   -0.01072164    0.00637138       1
Ni    -3.59282872    0.00076492   -0.00763111       2
Ni     0.01322883   -3.47607300    0.03707174       3
Cr     0.02484687    0.01033795    3.57111633       4
Cr     0.02300628    3.44805367   -0.00537242       5
Cr     0.07893082   -0.01211402   -3.53322386       6
Ni    -1.78587907   -0.04816973    1.77680176       7
Co     1.77182337   -1.71200321    0.00087775       8
Cr     0.28759489   -1.53542577    1.78425057       9
Co     1.74828021    1.73008552    0.04028464      10
Cr     0.12349220    1.58878806    1.73092478      11
Ni    -1.78696674    1.75751387   -0.00864997      12
Cr    -1.78698946   -1.74155281   -0.02026739      13
Co    -1.79003439    0.01041877   -1.79924702      14
Co     1.78276466    0.02701661   -1.80596237      15
Cr     0.03574903   -1.70280929   -1.78015204      16
Co     0.03089464    1.74791324   -1.78681290      17
Co     0.00000000    0.00000000    0.00000000      18
          18
Lattice="  24.8920   0.0000   0.0000   0.0000  24.8920   0.0000   0.0000   0.0000  24.8920 " ConfE="      -5923.0373" DelE="          0.7375"
Co     3.44165885   -0.01125550    0.03368279       1
Ni    -3.57046558   -0.00374464   -0.00058325       2
Ni     0.00512477   -3.58430354   -0.02223868       3
Cr     0.09406234   -0.00083612    3.49126230       4
Cr     0.00838916    3.52713603   -0.00940469       5
Cr     0.10205382   -0.00668288   -3.54886316       6
Ni    -1.70436231   -0.03798556    1.76518769       7
Co     1.78811629   -1.88001014   -0.07285188       8
Cr     0.07321409   -1.92582368    1.82197686       9
Co     1.75965359    1.88467979   -0.05472649      10
Cr     0.02839416    1.83344661    1.77655966      11
Ni    -1.73260039    1.74863504    0.00213877      12
Cr    -1.66000717   -1.68450936   -0.01096316      13
Co    -1.73553866   -0.00026634   -1.76045090      14
Co     1.70695032    0.00912881   -1.71678209      15
Cr     0.05912900   -1.66237197   -1.72565957      16
Co     0.01991911    1.73363109   -1.77264869      17
Co     0.82485332   -0.03726374    0.89545375      18
          18
Lattice="  24.8920   0.0000   0.0000   0.0000  24.8920   0.0000   0.0000   0.0000  24.8920 " ConfE="      -5923.6430" DelE="          0.1318"
Co     3.54132952   -0.00578480   -0.02745074       1
Ni    -3.60462938    0.00297015   -0.01062087       2
Ni     0.00060080   -3.54293066    0.00546296       3
Cr    -0.00437053    0.00405294    3.60297141       4
Cr     0.01764311    3.49619745   -0.01399952       5
Cr     0.08207268   -0.01533030   -3.55415653       6
Ni    -1.74589400   -0.03520097    1.74669898       7
Co     1.70427745   -1.70171230   -0.01952928       8
Cr     0.08832489   -1.66820789    1.69131827       9
Co     1.70577862    1.74173814    0.00356397      10
Cr     0.06763682    1.62646581    1.69341469      11
Ni    -1.75122107    1.73868129   -0.01390496      12
Cr    -1.74865373   -1.71063616   -0.02923541      13
Co    -1.76334302    0.00304174   -1.78027811      14
Co     1.74356549    0.02586640   -1.77581682      15
Cr     0.03375241   -1.63962964   -1.69676116      16
Co     0.02145650    1.72128578   -1.76406238      17
Co     1.73089349    0.00959002    1.77190339      18
