          18
Lattice="  24.8920   0.0000   0.0000   0.0000  24.8920   0.0000   0.0000   0.0000  24.8920 " ConfE="      -5946.3225" DelE="          0.0000"
Ni    -0.00906691   -3.38779303   -0.09339998       1
Co     0.04740815    0.11191610    3.42630923       2
Co    -0.01169427    3.68863072   -0.10519722       3
Ni     0.00549139    0.13169960   -3.66809237       4
Co     3.53541033    0.08625356   -0.13282874       5
Ni    -3.53821800    0.12491977   -0.11946718       6
Co     1.76369750   -1.67529894   -0.10093581       7
Co    -1.76011265   -1.64490140   -0.07341771       8
Co     1.74199423    0.08129353    1.64517695       9
Co    -1.77815536    0.11421849    1.64500763      10
Co     0.05222814   -1.64864524   -1.90976025      11
Ni    -0.02307788    1.88979711    1.66432473      12
Ni    -0.01195969    1.87413957   -1.85036432      13
Cr     1.77491376    0.10483050   -1.79668080      14
Ni    -1.74921604    0.11664644   -1.87376477      15
Co     1.76185734    1.87723778   -0.07802522      16
Cr    -1.76809069    1.90044525   -0.08451003      17
Cr     0.00000000    0.00000000    0.00000000      18
          18
Lattice="  24.8920   0.0000   0.0000   0.0000  24.8920   0.0000   0.0000   0.0000  24.8920 " ConfE="      -5945.7341" DelE="          0.5885"
Ni    -0.00477737   -3.38252317   -0.09277583       1
Co     0.03855647    0.10052852    3.41248416       2
Co    -0.00898258    3.68441907   -0.09732819       3
Ni     0.00721894    0.12761205   -3.66171376       4
Co     3.60402828    0.09455371   -0.13753093       5
Ni    -3.57266736    0.12898661   -0.12115060       6
Co     1.85535320   -1.68399529   -0.11828174       7
Co    -1.85665579   -1.67343871   -0.10542757       8
Co     1.85002770    0.13193723    1.65226191       9
Co    -1.88382638    0.16376213    1.66801353      10
Co     0.06740971   -1.59423944   -1.80225205      11
Ni    -0.01753184    1.80196259    1.61978564      12
Ni    -0.02391349    1.87770819   -1.84881322      13
Cr     1.69007670    0.09772713   -1.68029504      14
Ni    -1.72237294    0.11428595   -1.82870350      15
Co     1.74392117    1.82346237   -0.09507942      16
Cr    -1.73664449    1.84311469   -0.07789921      17
Cr    -0.03666517   -0.90420123    0.93974991      18
          18
Lattice="  24.8920   0.0000   0.0000   0.0000  24.8920   0.0000   0.0000   0.0000  24.8920 " ConfE="      -5946.3416" DelE="         -0.0190"
Ni    -0.00519011   -3.43496640   -0.12278481       1
Co     0.02944349    0.12386969    3.45785350       2
Co    -0.00964066    3.70697372   -0.11289084       3
Ni     0.00894385    0.13339071   -3.67855432       4
Co     3.56826662    0.09662638   -0.13578528       5
Ni    -3.55292520    0.12758007   -0.12481091       6
Co     1.74468490   -1.62692226   -0.12504306       7
Co    -1.74341655   -1.63588237   -0.07259777       8
Co     1.74653797    0.10846793    1.62046368       9
Co    -1.78374637    0.11553192    1.62867214      10
Co     0.06743281   -1.61838276   -1.86078846      11
Ni    -0.03049542    1.82847037    1.60989271      12
Ni    -0.00678829    1.86966669   -1.84405941      13
Cr     1.76577466    0.11106882   -1.78609217      14
Ni    -1.71899238    0.12286184   -1.84712246      15
Co     1.76241030    1.87344933   -0.09434269      16
Cr    -1.76877258    1.89496201   -0.10803107      17
Cr     0.02394124   -1.60098957    1.61883530      18
