          18
Lattice="  24.8920   0.0000   0.0000   0.0000  24.8920   0.0000   0.0000   0.0000  24.8920 " ConfE="      -5949.1379" DelE="          0.0000"
Cr     0.02573790   -3.59255233   -0.03990292       1
Co    -0.01995471   -0.01358768    3.42121098       2
Co     0.02063782    3.53836003   -0.09623183       3
Cr    -0.00403628   -0.00562371   -3.63286940       4
Cr    -3.48705134    0.00406587   -0.02428476       5
Co     3.55258079   -0.00119900   -0.07006933       6
Ni    -1.69218358   -1.79110069   -0.06626365       7
Ni     1.74291570   -1.75523760   -0.05284754       8
Cr    -1.69779865   -0.11831287    1.79174471       9
Ni     1.75585131   -0.01078769    1.71055417      10
Cr     0.10089372   -1.80208546   -1.90550487      11
Cr     0.00297012    1.81799540    1.70095945      12
Cr    -0.03797984    1.78601270   -1.82668734      13
Cr    -1.76741414   -0.00639596   -1.85071472      14
Ni     1.79099019    0.02391343   -1.85397672      15
Co    -1.75502580    1.75923640   -0.03658224      16
Cr     1.77711872    1.81222839   -0.09490772      17
Cr     0.00000000    0.00000000    0.00000000      18
          18
Lattice="  24.8920   0.0000   0.0000   0.0000  24.8920   0.0000   0.0000   0.0000  24.8920 " ConfE="      -5948.6156" DelE="          0.5224"
Cr    -0.01240229   -3.52520586   -0.06211998       1
Co    -0.01616561   -0.02076535    3.37128024       2
Co     0.02159673    3.55317453   -0.08866154       3
Cr    -0.01763230   -0.01801966   -3.59147302       4
Cr    -3.65264435    0.03103632   -0.10321774       5
Co     3.63815018    0.00546888   -0.08964397       6
Ni    -1.96098460   -1.81412507   -0.18443426       7
Ni     1.87486454   -1.76180348   -0.09850807       8
Cr    -1.98773743   -0.10214409    1.73844151       9
Ni     1.89790476    0.00107630    1.71019404      10
Cr     0.06902973   -1.73923663   -1.82279717      11
Cr     0.01348557    1.74312832    1.61046442      12
Cr    -0.00023563    1.71784283   -1.69251788      13
Cr    -1.70032209    0.01870764   -1.72501035      14
Ni     1.79452427    0.00583209   -1.82350218      15
Co    -1.73372291    1.69906007   -0.02265211      16
Cr     1.74687135    1.71975611   -0.05940573      17
Cr    -0.08922289   -0.89118881    0.87049697      18
          18
Lattice="  24.8920   0.0000   0.0000   0.0000  24.8920   0.0000   0.0000   0.0000  24.8920 " ConfE="      -5949.4820" DelE="         -0.3440"
Cr     0.03015180   -3.60699001   -0.11199420       1
Co    -0.01096498    0.00578221    3.45295802       2
Co     0.02044724    3.58398134   -0.09980634       3
Cr    -0.00674013   -0.00461689   -3.61346639       4
Cr    -3.55531141    0.00661921   -0.04085580       5
Co     3.60249397   -0.00412168   -0.07475842       6
Ni    -1.72201434   -1.76235969   -0.10028133       7
Ni     1.76026066   -1.72947092   -0.08852944       8
Cr    -1.73706349   -0.02041267    1.67617075       9
Ni     1.74710133    0.01788353    1.64675323      10
Cr     0.08201859   -1.70879844   -1.83536007      11
Cr     0.00313955    1.73156625    1.56583551      12
Cr    -0.00065705    1.71318314   -1.70983003      13
Cr    -1.73568924    0.01679788   -1.78528792      14
Ni     1.80483303    0.03111487   -1.84111566      15
Co    -1.73435268    1.75248938   -0.06202871      16
Cr     1.78393222    1.80948872   -0.10708014      17
Cr    -0.01663941   -1.74725540    1.66113353      18
