          18
Lattice="  24.8920   0.0000   0.0000   0.0000  24.8920   0.0000   0.0000   0.0000  24.8920 " ConfE="      -5940.3019" DelE="          0.0000"
Cr     0.09892625    3.40684334   -0.02825604       1
Cr     3.45016129    0.05380723   -0.03382136       2
Cr    -0.04577345   -3.68140606   -0.03335800       3
Co    -3.60050072   -0.06134828   -0.05849677       4
Cr     0.04810445    0.00814633   -3.52924337       5
Co    -0.01502870   -0.01586163    3.56841689       6
Co     0.03446103    1.76998741   -1.77970237       7
Co     0.01911230    1.73929492    1.75481644       8
Co     1.80744889    0.04268094   -1.75835843       9
Ni     1.75217046   -0.02326244    1.75047039      10
Ni    -1.80580124    1.72609837   -0.01050073      11
Ni     1.75411606   -1.84210730   -0.02781970      12
Ni    -1.77864864   -1.81898502   -0.01215458      13
Ni    -1.78379208   -0.03926180   -1.79544938      14
Cr    -1.84093366   -0.05990906    1.76911172      15
Ni     0.00256947   -1.81220619   -1.78089773      16
Ni    -0.03959870   -1.80552027    1.75068476      17
Ni     0.00000000    0.00000000    0.00000000      18
          18
Lattice="  24.8920   0.0000   0.0000   0.0000  24.8920   0.0000   0.0000   0.0000  24.8920 " ConfE="      -5939.8492" DelE="          0.4527"
Cr     0.11497153    3.35369575   -0.02913797       1
Cr     3.40110336    0.05194348   -0.02206778       2
Cr    -0.03445140   -3.69524249   -0.03724937       3
Co    -3.59164409   -0.05097255   -0.05776105       4
Cr     0.04071406   -0.02866678   -3.57806955       5
Co    -0.02962674   -0.02557060    3.62317536       6
Co    -0.00804395    1.83117186   -2.01863997       7
Co    -0.00036964    1.75769540    1.90681315       8
Co     1.83807115    0.00592031   -1.91421083       9
Ni     1.74460648   -0.04520221    1.84660134      10
Ni    -1.76599817    1.73272008   -0.01385067      11
Ni     1.71950431   -1.78724344   -0.02316983      12
Ni    -1.75019344   -1.79903702   -0.01065382      13
Ni    -1.72107575   -0.00991504   -1.76639210      14
Cr    -1.76544216   -0.03162410    1.72665741      15
Ni     0.01445833   -1.77544580   -1.76580077      16
Ni    -0.04263409   -1.78482511    1.75032977      17
Ni     0.45730510    0.57616547   -0.07522755      18
          18
Lattice="  24.8920   0.0000   0.0000   0.0000  24.8920   0.0000   0.0000   0.0000  24.8920 " ConfE="      -5940.7736" DelE="         -0.4717"
Cr     0.02089655    3.50968908   -0.02946675       1
Cr     3.53308967   -0.01406968   -0.04636122       2
Cr    -0.04230916   -3.69883392   -0.03388014       3
Co    -3.61301666   -0.05807990   -0.05602434       4
Cr     0.03182715   -0.00583652   -3.56423850       5
Co    -0.02047743   -0.02428173    3.60033584       6
Co    -0.00976753    1.73903489   -1.80842820       7
Co    -0.01819463    1.69251497    1.76853626       8
Co     1.76664026   -0.01970948   -1.79951459       9
Ni     1.72867626   -0.05404443    1.75184325      10
Ni    -1.75494100    1.69975196   -0.00241166      11
Ni     1.73602458   -1.80912183   -0.03133183      12
Ni    -1.75134832   -1.79254461   -0.00946904      13
Ni    -1.76342710   -0.04063633   -1.77404571      14
Cr    -1.83289014   -0.06863701    1.76078943      15
Ni    -0.00540931   -1.80084782   -1.76680866      16
Ni    -0.04325601   -1.78160728    1.72772159      17
Ni     1.70815564    1.69324678   -0.00231463      18
