          18
Lattice="  24.8920   0.0000   0.0000   0.0000  24.8920   0.0000   0.0000   0.0000  24.8920 " ConfE="      -5945.2502" DelE="          0.0000"
Co    -3.46439650   -0.04205389   -0.00284738       1
Co    -0.01628079   -0.02213569    3.47736849       2
Cr     0.07458242    0.02540744   -3.63663570       3
Cr     3.45847743    0.00372924   -0.09338815       4
Co    -0.05686039   -3.55102355   -0.07868588       5
Co     0.05641520    3.46038398   -0.03328236       6
Ni    -1.74688360    1.71451654   -0.00887154       7
Ni    -0.06147291   -1.77606037    1.72678847       8
Cr    -1.78799397   -1.70500627   -0.04497155       9
Cr     0.02113319    1.69046707    1.73603940      10
Ni     0.00374387   -1.76912942   -1.80967347      11
Cr    -1.77677422    0.02460263   -1.87295206      12
Co     1.77688833   -0.00962338    1.76120374      13
Co     1.76209563   -0.00097994   -1.82915071      14
Cr     1.75999696    1.73701063   -0.10346284      15
Co     1.75263812   -1.73854317   -0.04221637      16
Co     0.00153416    1.73100583   -1.84145643      17
Cr     0.00000000    0.00000000    0.00000000      18
          18
Lattice="  24.8920   0.0000   0.0000   0.0000  24.8920   0.0000   0.0000   0.0000  24.8920 " ConfE="      -5941.2619" DelE="          3.9883"
Co    -3.54487194   -0.03067914    0.00926251       1
Co    -0.02880417   -0.01284817    3.56676450       2
Cr     0.10166789   -0.01526595   -3.64762082       3
Cr     3.50345802    0.00508062   -0.07231698       4
Co    -0.03530291   -3.57094552   -0.08123441       5
Co     0.04950865    3.46282095   -0.04398083       6
Ni    -1.76973612    1.68168010   -0.02422919       7
Ni    -0.18201028   -1.75071146    1.83016232       8
Cr    -1.88050356   -1.78405549    0.03482819       9
Cr     0.01510824    1.56764131    1.60264775      10
Ni    -0.31772145   -0.85534054   -1.36773542      11
Cr    -2.18256399    0.18703500   -1.95001088      12
Co     1.87088087    0.15959447    2.12044112      13
Co     1.90400278    0.05550392   -1.88926562      14
Cr     1.70187506    1.66031484   -0.09019315      15
Co     1.45897163   -2.26951545   -1.37398549      16
Co    -0.01373935    1.67144754   -1.81671962      17
Cr     1.39666352   -1.01995685    0.35672924      18
          18
Lattice="  24.8920   0.0000   0.0000   0.0000  24.8920   0.0000   0.0000   0.0000  24.8920 " ConfE="      -5946.0546" DelE="         -0.8044"
Co    -3.49609545   -0.03615086   -0.00648833       1
Co    -0.00836730   -0.02800044    3.48709199       2
Cr     0.06424007    0.01177853   -3.59743121       3
Cr     3.47759203    0.02052034   -0.10847711       4
Co    -0.03879687   -3.55525597   -0.07538364       5
Co     0.05745205    3.47759224   -0.03938578       6
Ni    -1.75691071    1.72127028   -0.01321206       7
Ni    -0.05615847   -1.78735245    1.72142506       8
Cr    -1.81689204   -1.74668694   -0.07136431       9
Cr     0.03568272    1.71121401    1.72986724      10
Ni    -0.03045049   -0.03062791   -0.01298658      11
Cr    -1.77979735    0.00483218   -1.86252548      12
Co     1.77983380   -0.01710414    1.74251618      13
Co     1.75220006   -0.01589225   -1.81080413      14
Cr     1.75092170    1.75571217   -0.10352933      15
Co    -0.02707899   -1.77944787   -1.80577649      16
Co     0.00210543    1.73764124   -1.84408036      17
Cr     1.79529899   -1.79202465   -0.03133772      18
