          18
Lattice="  24.8920   0.0000   0.0000   0.0000  24.8920   0.0000   0.0000   0.0000  24.8920 " ConfE="      -5938.2322" DelE="          0.0000"
Co    -0.02762762    0.02499761   -3.57737332       1
Ni     3.46550954    0.03144624   -0.03594705       2
Co    -0.03492573    0.01667404    3.51236472       3
Ni    -3.60994281   -0.00846633   -0.01574583       4
Cr     0.00444175   -3.58339767   -0.01667344       5
Co    -0.02806302    3.57735632   -0.02888743       6
Ni    -0.02389335   -1.73064673   -1.77312047       7
Ni    -0.01226779    1.77111225   -1.77781253       8
Co     1.70262338   -1.74219048   -0.00586786       9
Co     1.71871568    1.82613072    0.00379258      10
Ni    -1.83308886   -0.00795935   -1.80313569      11
Cr     1.70806724    0.14002989    1.74968467      12
Ni    -1.83230418    0.00958098    1.73303599      13
Cr    -1.81417289   -1.80540524   -0.03577872      14
Ni    -1.82269220    1.80113139   -0.03656461      15
Cr    -0.02112033   -1.70849300    1.71441962      16
Ni    -0.06252677    1.82439813    1.76343882      17
Co     0.00000000    0.00000000    0.00000000      18
          18
Lattice="  24.8920   0.0000   0.0000   0.0000  24.8920   0.0000   0.0000   0.0000  24.8920 " ConfE="      -5937.5054" DelE="          0.7267"
Co    -0.00429690    0.03278958   -3.49371413       1
Ni     3.43258957    0.04205688   -0.03184074       2
Co    -0.02428695    0.01495061    3.50217029       3
Ni    -3.60136970   -0.00737939   -0.02244228       4
Cr    -0.00340364   -3.69729860   -0.00954979       5
Co    -0.04565123    3.64941883   -0.00821253       6
Ni    -0.07121844   -1.86467137   -1.76611878       7
Ni    -0.05889248    1.92028940   -1.79735040       8
Co     1.71799047   -1.94471307    0.04033971       9
Co     1.74039381    2.04778096    0.02788848      10
Ni    -1.75954635   -0.00951498   -1.75982554      11
Cr     1.66742659    0.12380170    1.65552496      12
Ni    -1.78022990    0.00896334    1.68465905      13
Cr    -1.78519468   -1.80596417   -0.04118034      14
Ni    -1.78920703    1.80385824   -0.04648936      15
Cr     0.00817603   -1.65006217    1.60059077      16
Ni    -0.04522153    1.81038018    1.72240717      17
Co     0.92212291    0.03767053   -0.77164639      18
          18
Lattice="  24.8920   0.0000   0.0000   0.0000  24.8920   0.0000   0.0000   0.0000  24.8920 " ConfE="      -5938.2141" DelE="          0.0181"
Co    -0.05413106    0.02207540   -3.59474334       1
Ni     3.52480478    0.03698054   -0.00907684       2
Co    -0.03128363    0.01787474    3.52416743       3
Ni    -3.62243859   -0.01143716   -0.01495001       4
Cr     0.00012319   -3.63617246   -0.00471767       5
Co    -0.02893735    3.58888352   -0.02639347       6
Ni    -0.05197981   -1.73789990   -1.73275356       7
Ni    -0.04463414    1.78249598   -1.76377994       8
Co     1.62707443   -1.68811501    0.04933835       9
Co     1.70311275    1.80229792    0.01371043      10
Ni    -1.80096585   -0.01417842   -1.77146396      11
Cr     1.67661807    0.15339593    1.67268630      12
Ni    -1.79574860    0.00286821    1.69724220      13
Cr    -1.81747727   -1.81720353   -0.02805745      14
Ni    -1.81720014    1.79088315   -0.03607912      15
Cr    -0.02782854   -1.67948426    1.68724402      16
Ni    -0.06085178    1.80146652    1.74030653      17
Co     1.72140082    0.03922337   -1.75561668      18
