          18
Lattice="  24.8920   0.0000   0.0000   0.0000  24.8920   0.0000   0.0000   0.0000  24.8920 " ConfE="      -5929.3888" DelE="          0.0000"
Ni    -0.05267464    0.02267284    3.44496484       1
Ni    -0.05829942    3.60457665   -0.10902997       2
Cr    -0.08149418   -3.46628065    0.10302974       3
Co    -3.53929135    0.03635478   -0.08753912       4
Co     3.49917848    0.03880974   -0.09507296       5
Cr    -0.00922053    0.07559371   -3.70454947       6
Ni    -1.80670789    0.02345167    1.72364544       7
Cr     1.67742018    0.02477236    1.65238390       8
Ni     1.73039389    0.01855045   -1.84784689       9
Co    -1.70571846   -1.77808646   -0.06409853      10
Cr     1.72746543   -1.80011546   -0.02344960      11
Ni    -0.06557361    1.85837908    1.70115229      12
Ni    -1.79622645    1.82434205   -0.06818056      13
Cr    -1.79574999    0.01118648   -1.78706907      14
Cr    -0.05618990   -1.66932640   -1.84419001      15
Cr     1.69018701    1.85063738   -0.11313918      16
Cr    -0.03061072    1.77633564   -1.89399707      17
Co     0.00000000    0.00000000    0.00000000      18
          18
Lattice="  24.8920   0.0000   0.0000   0.0000  24.8920   0.0000   0.0000   0.0000  24.8920 " ConfE="      -5928.7391" DelE="          0.6496"
Ni    -0.05498261    0.02250661    3.42671709       1
Ni    -0.05458702    3.61495928   -0.09667328       2
Cr    -0.06871227   -3.51813558    0.11056219       3
Co    -3.59035885    0.05760338   -0.09367012       4
Co     3.52920742    0.04780943   -0.09800138       5
Cr    -0.00982669    0.04557415   -3.67414104       6
Ni    -1.88763053    0.07430195    1.72392646       7
Cr     1.78326380    0.09171096    1.70071912       8
Ni     1.66374433   -0.03553329   -1.77558625       9
Co    -1.89400157   -1.78476519   -0.16387276      10
Cr     1.88758555   -1.89291178   -0.07507316      11
Ni    -0.06052279    1.81624501    1.67724442      12
Ni    -1.76109751    1.78629555   -0.07772952      13
Cr    -1.67387170   -0.03944166   -1.72032782      14
Cr    -0.02570770   -1.87206392   -1.71745330      15
Cr     1.65394973    1.79175370   -0.08345030      16
Cr     0.00059136    1.78087785   -1.86437276      17
Co     0.04551356   -1.03055757    0.86419055      18
          18
Lattice="  24.8920   0.0000   0.0000   0.0000  24.8920   0.0000   0.0000   0.0000  24.8920 " ConfE="      -5929.2053" DelE="          0.1834"
Ni    -0.04995888    0.05619013    3.48506517       1
Ni    -0.05787887    3.62434391   -0.11505170       2
Cr    -0.06087218   -3.59408668    0.05245254       3
Co    -3.55940728    0.05096655   -0.09513677       4
Co     3.50904742    0.04660396   -0.10385530       5
Cr    -0.00930537    0.08130280   -3.72872186       6
Ni    -1.80250341    0.05829630    1.69188256       7
Cr     1.64704174    0.04621746    1.59859921       8
Ni     1.68813687    0.01576415   -1.81101583       9
Co    -1.72314723   -1.72435651   -0.13337767      10
Cr     1.72584580   -1.79185059   -0.05177829      11
Ni    -0.05908332    1.82430309    1.66419382      12
Ni    -1.77189511    1.81738857   -0.08412848      13
Cr    -1.76888774    0.02505949   -1.77167146      14
Cr    -0.07550843   -1.63747120   -1.75135163      15
Cr     1.66093030    1.83546627   -0.11763119      16
Cr    -0.03126117    1.76274653   -1.88958610      17
Co    -0.00951658   -1.66084558    1.60540367      18
