          18
Lattice="  24.8920   0.0000   0.0000   0.0000  24.8920   0.0000   0.0000   0.0000  24.8920 " ConfE="      -5943.6777" DelE="          0.0000"
Ni    -0.00997059   -3.50065741   -0.03085364       1
Ni    -3.60497142   -0.00415196    0.02032372       2
Cr     0.02761235    0.02322228   -3.47317794       3
Co     3.51774267    0.00395321    0.02114234       4
Cr     0.00265216    0.01503465    3.57663889       5
Cr    -0.01167461    3.60011309    0.05927780       6
Ni    -1.76505127   -1.77542439   -0.01510659       7
Ni    -1.77562604    0.01160898   -1.74279849       8
Cr     1.72867252   -1.74177370   -0.06757777       9
Ni    -0.03160872    1.79314574    1.80512271      10
Co     1.71743853    0.01915053   -1.74674980      11
Co    -0.00694914   -1.74544232    1.82913902      12
Cr     1.75583904    0.00434998    1.78678123      13
Cr     1.78040827    1.76307738    0.03749499      14
Cr    -0.02830076    1.82206378   -1.73270665      15
Cr    -1.78624250    0.00062232    1.76965845      16
Cr    -1.82658994    1.79437041    0.03516276      17
Co     0.00000000    0.00000000    0.00000000      18
          18
Lattice="  24.8920   0.0000   0.0000   0.0000  24.8920   0.0000   0.0000   0.0000  24.8920 " ConfE="      -5942.9074" DelE="          0.7703"
Ni    -0.01678060   -3.48422038   -0.05150929       1
Ni    -3.63613213    0.00787359    0.03546435       2
Cr     0.03517910   -0.02635436   -3.48560887       3
Co     3.57633817    0.02280654    0.05690098       4
Cr     0.01065094   -0.00399044    3.59475307       5
Cr    -0.02484749    3.63974145    0.05518114       6
Ni    -1.88433566   -1.80135496    0.01415810       7
Ni    -1.90718730    0.04067295   -1.77243678       8
Cr     1.87706648   -1.80333652   -0.05796013       9
Ni    -0.03232402    1.78172646    1.79541110      10
Co     1.94551830    0.16599283   -1.74750774      11
Co    -0.00097687   -1.72654792    1.72720960      12
Cr     1.64626926   -0.04154677    1.67951640      13
Cr     1.67275794    1.71870024    0.02023465      14
Cr    -0.03003716    1.69933529   -1.73846737      15
Cr    -1.65878710   -0.03929389    1.67443311      16
Cr    -1.72041011    1.71318018    0.00684235      17
Co     0.08119341   -0.97522757   -1.04863000      18
          18
Lattice="  24.8920   0.0000   0.0000   0.0000  24.8920   0.0000   0.0000   0.0000  24.8920 " ConfE="      -5943.5359" DelE="          0.1418"
Ni    -0.00921577   -3.53865174   -0.01021823       1
Ni    -3.60920001    0.00677761    0.03470448       2
Cr     0.00761084    0.07426727   -3.54260937       3
Co     3.53810102    0.01478500    0.03690645       4
Cr    -0.00341348    0.02011627    3.62624293       5
Cr    -0.01638656    3.65934122    0.06765905       6
Ni    -1.75743983   -1.75025165    0.00761199       7
Ni    -1.76914720    0.03914083   -1.70844607       8
Cr     1.71751535   -1.70334637   -0.03591619       9
Ni    -0.02837285    1.78936605    1.79386510      10
Co     1.71181070    0.08524521   -1.67497174      11
Co    -0.00753673   -1.71672629    1.79320540      12
Cr     1.67027512   -0.01190850    1.74980925      13
Cr     1.71049667    1.72507691    0.03544862      14
Cr    -0.02160812    1.77385243   -1.70784860      15
Cr    -1.70828290   -0.00219024    1.73882470      16
Cr    -1.76449413    1.77474738    0.04121189      17
Co     0.02800361   -1.68727868   -1.76306502      18
