          18
Lattice="  24.8920   0.0000   0.0000   0.0000  24.8920   0.0000   0.0000   0.0000  24.8920 " ConfE="      -5934.6642" DelE="          0.0000"
Cr    -3.44603750    0.06264695    0.01057096       1
Cr     0.03414141   -3.40776967   -0.02451504       2
Ni     0.07153177    0.08206829   -3.57349155       3
Co     0.06479493    0.06155081    3.56970263       4
Cr     0.05232217    3.65715507    0.00499703       5
Cr     3.59726095    0.09381336    0.00655456       6
Ni    -1.72244034    0.07026140    1.77288445       7
Co    -1.68842799    0.04626983   -1.67002098       8
Co     0.01683360   -1.68293391   -1.73765548       9
Cr     0.01542069   -1.70480693    1.75240828      10
Ni     0.04600210    1.85217630   -1.78762273      11
Cr    -1.70655841    1.91703729    0.03671273      12
Co     1.84266408   -1.70819954    0.00014351      13
Cr     1.82494925    0.10716577   -1.75037622      14
Cr     0.05457250    1.84052482    1.78608344      15
Co     1.83435149    0.09422979    1.76321658      16
Co     1.79949682    1.85608239    0.00316391      17
Cr     0.00000000    0.00000000    0.00000000      18
          18
Lattice="  24.8920   0.0000   0.0000   0.0000  24.8920   0.0000   0.0000   0.0000  24.8920 " ConfE="      -5934.0476" DelE="          0.6166"
Cr    -3.47282949    0.08223360    0.01003177       1
Cr     0.09122917   -3.46682328   -0.03834968       2
Ni     0.07913931    0.10123553   -3.63067353       3
Co     0.08035538    0.11509783    3.66023491       4
Cr     0.03592580    3.61793096    0.01878157       5
Cr     3.58157223    0.09000654   -0.01259539       6
Ni    -1.75666204    0.11235045    1.89825253       7
Co    -1.68354429    0.07254112   -1.78988451       8
Co     0.08566201   -1.69263660   -1.92553792       9
Cr     0.15325305   -1.58906119    1.95669621      10
Ni     0.04958720    1.81212659   -1.76803801      11
Cr    -1.67001449    1.81067550    0.03111104      12
Co     1.73989951   -1.66384294   -0.01511305      13
Cr     1.76838622    0.08811977   -1.71399713      14
Cr     0.05258260    1.68992303    1.70603686      15
Co     1.81093574    0.10911883    1.73765009      16
Co     1.78401758    1.83422521    0.00136744      17
Cr    -0.84751224   -1.00504907    0.02653604      18
          18
Lattice="  24.8920   0.0000   0.0000   0.0000  24.8920   0.0000   0.0000   0.0000  24.8920 " ConfE="      -5934.3720" DelE="          0.2921"
Cr    -3.52688226    0.10730844    0.01811477       1
Cr     0.09983674   -3.50263293   -0.03226702       2
Ni     0.08649966    0.09454083   -3.59356907       3
Co     0.07208418    0.09006815    3.60542885       4
Cr     0.04377797    3.65099774    0.00891653       5
Cr     3.60241635    0.10153605   -0.00449949       6
Ni    -1.68654006    0.09385904    1.76023943       7
Co    -1.65634377    0.07485808   -1.67046348       8
Co     0.05790824   -1.64403350   -1.75273613       9
Cr     0.13498502   -1.57958631    1.70969851      10
Ni     0.06822476    1.83909946   -1.77433395      11
Cr    -1.65398437    1.83783473    0.01568007      12
Co     1.76758349   -1.65744742   -0.00958977      13
Cr     1.83352176    0.12349117   -1.73923627      14
Cr     0.07961081    1.78876635    1.72936045      15
Co     1.82238697    0.12763483    1.74192633      16
Co     1.78986337    1.84361841   -0.00139239      17
Cr    -1.62163253   -1.64072692   -0.01696963      18
