          18
Lattice="  24.8920   0.0000   0.0000   0.0000  24.8920   0.0000   0.0000   0.0000  24.8920 " ConfE="      -5946.5174" DelE="          0.0000"
Ni     3.49272371    0.01473114   -0.04928889       1
Ni    -0.05060293   -3.47362524   -0.02201273       2
Ni    -0.02297235    0.04447995   -3.56413260       3
Co    -0.02173726    3.61905205   -0.06473405       4
Co    -3.59359597    0.07082896   -0.03579324       5
Cr    -0.07071434    0.08352940    3.51554536       6
Cr     1.67753909   -0.13452576   -1.70461889       7
Co    -0.01305246   -1.72024122   -1.77648474       8
Cr     1.69815422    0.05243965    1.68582397       9
Cr    -0.02443928   -1.66648533    1.68007747      10
Ni     1.72625965    1.83758471   -0.05944501      11
Ni    -1.82846422    0.07257190    1.73179351      12
Cr    -0.04128786    1.79503021   -1.80013770      13
Co    -1.80417129    0.04352074   -1.78912524      14
Co    -1.85901374   -1.72442907    0.00327225      15
Co    -1.78068954    1.83906358   -0.04667550      16
Co    -0.01865021    1.81797625    1.75207026      17
Co     0.00000000    0.00000000    0.00000000      18
          18
Lattice="  24.8920   0.0000   0.0000   0.0000  24.8920   0.0000   0.0000   0.0000  24.8920 " ConfE="      -5946.0375" DelE="          0.4799"
Ni     3.46207681    0.01077689   -0.03453012       1
Ni    -0.05762311   -3.47547164   -0.02205118       2
Ni    -0.03838992    0.04705769   -3.61842632       3
Co    -0.01218858    3.60826726   -0.07390540       4
Co    -3.58789830    0.06304331   -0.03320640       5
Cr    -0.10370889    0.09375705    3.57556918       6
Cr     1.75092408   -0.07973894   -1.92077730       7
Co    -0.05202164   -1.73221186   -1.86380547       8
Cr     1.76504310    0.21883572    1.96532532       9
Cr    -0.16704921   -1.72952886    1.79695712      10
Ni     1.70707847    1.77481781   -0.06061755      11
Ni    -1.79773756    0.08169771    1.72665043      12
Cr    -0.06050109    1.64247327   -1.71386134      13
Co    -1.78746973    0.03774859   -1.79001205      14
Co    -1.76619955   -1.67520364   -0.00120819      15
Co    -1.74777938    1.80517725   -0.05100401      16
Co    -0.01115409    1.78398258    1.73579695      17
Co     0.84088476   -0.68248467    0.07098289      18
          18
Lattice="  24.8920   0.0000   0.0000   0.0000  24.8920   0.0000   0.0000   0.0000  24.8920 " ConfE="      -5946.7943" DelE="         -0.2769"
Ni     3.52840551    0.05420277   -0.04163021       1
Ni    -0.05559103   -3.50913048   -0.03121798       2
Ni    -0.03762387    0.05073736   -3.60355857       3
Co    -0.01998708    3.62945882   -0.06989676       4
Co    -3.59519800    0.06703876   -0.03621323       5
Cr    -0.07982926    0.08593818    3.55059141       6
Cr     1.62935279   -0.05896118   -1.74214591       7
Co    -0.03618580   -1.68172829   -1.77625446       8
Cr     1.65405463    0.12560475    1.71417812       9
Cr    -0.05815247   -1.62687045    1.65294474      10
Ni     1.69570639    1.79843487   -0.07133747      11
Ni    -1.79419469    0.08160395    1.70182453      12
Cr    -0.07779514    1.74893069   -1.76860596      13
Co    -1.76856669    0.05594579   -1.76500025      14
Co    -1.79921094   -1.70498602    0.01041211      15
Co    -1.76425791    1.83457663   -0.05652706      16
Co    -0.01581702    1.79309704    1.72838560      17
Co     1.70240546   -1.67441473   -0.02256844      18
