          18
Lattice="  24.8920   0.0000   0.0000   0.0000  24.8920   0.0000   0.0000   0.0000  24.8920 " ConfE="      -5926.5722" DelE="          0.0000"
Ni     3.54891614   -0.13530251    0.01120079       1
Cr    -0.00220108    3.44545967   -0.00393553       2
Cr    -0.03577713   -0.03846482   -3.56810741       3
Cr    -0.10878014   -0.10028050    3.55049930       4
Co    -0.03799931   -3.64351273   -0.02949533       5
Co    -3.56962318   -0.08267689   -0.03237422       6
Ni     1.74805582   -0.09959550   -1.73045234       7
Co     0.00767992    1.72203346   -1.73954665       8
Cr    -0.03349370    1.71221485    1.76366221       9
Ni     1.74956485   -1.91782116    0.00248814      10
Cr     1.71987702   -0.05191543    1.70645369      11
Cr    -1.83104201    1.76119313   -0.01129418      12
Cr    -0.04707726   -1.86366964   -1.77828689      13
Cr    -1.78196141   -0.08137409   -1.81606750      14
Co    -1.79561793   -0.09761678    1.73818567      15
Co    -0.03621066   -1.82882574    1.75348655      16
Cr    -1.79338287   -1.88643133    0.02203238      17
Cr     0.00000000    0.00000000    0.00000000      18
          18
Lattice="  24.8920   0.0000   0.0000   0.0000  24.8920   0.0000   0.0000   0.0000  24.8920 " ConfE="      -5926.0467" DelE="          0.5255"
Ni     3.50210457   -0.17535820    0.01853855       1
Cr    -0.08469594    3.45741330    0.00485131       2
Cr    -0.03654522   -0.06665157   -3.73745007       3
Cr    -0.13054247   -0.11828627    3.62066465       4
Co    -0.02451544   -3.64572800   -0.02532185       5
Co    -3.57829542   -0.06781321   -0.03923670       6
Ni     1.77145446   -0.18963263   -1.92337605       7
Co    -0.04207548    1.72756175   -1.90908456       8
Cr    -0.14330707    1.72056341    1.87216824       9
Ni     1.72790708   -1.86894730   -0.00495091      10
Cr     1.73341156   -0.15432673    1.87650274      11
Cr    -1.79537759    1.69128911   -0.02693962      12
Cr    -0.02513850   -1.79058338   -1.71444100      13
Cr    -1.66789763   -0.05813343   -1.77749287      14
Co    -1.74356431   -0.07998784    1.70783370      15
Co    -0.01987113   -1.76737669    1.73281807      16
Cr    -1.70289039   -1.77027252    0.02584799      17
Cr     0.80562152    0.71596169   -0.02747357      18
          18
Lattice="  24.8920   0.0000   0.0000   0.0000  24.8920   0.0000   0.0000   0.0000  24.8920 " ConfE="      -5926.6039" DelE="         -0.0316"
Ni     3.52469908   -0.11395159    0.01410434       1
Cr    -0.07114069    3.53871288   -0.02492729       2
Cr    -0.04248413   -0.06550636   -3.62799124       3
Cr    -0.11960036   -0.13430300    3.60042116       4
Co    -0.03619189   -3.66712558   -0.03501286       5
Co    -3.58884811   -0.07577796   -0.03829536       6
Ni     1.69258561   -0.12570124   -1.74796201       7
Co    -0.04911785    1.69916808   -1.80791385       8
Cr    -0.16478075    1.67846780    1.84172394       9
Ni     1.72123665   -1.89186758   -0.00796437      10
Cr     1.62617566   -0.12926288    1.72797055      11
Cr    -1.69290391    1.65730402   -0.04409310      12
Cr    -0.05575188   -1.86287075   -1.76841416      13
Cr    -1.74336717   -0.10834030   -1.80152592      14
Co    -1.75938674   -0.10904705    1.70856532      15
Co    -0.04074402   -1.81115357    1.73079727      16
Cr    -1.72408822   -1.80817803    0.01046297      17
Cr     1.43181511    1.53431643    0.05107758      18
