          18
Lattice="  24.8920   0.0000   0.0000   0.0000  24.8920   0.0000   0.0000   0.0000  24.8920 " ConfE="      -5936.8087" DelE="          0.0000"
Co    -0.01399828    3.54917858   -0.03965309       1
Cr    -0.03578543   -0.14191380   -3.54479953       2
Cr    -0.01932925   -3.51065517   -0.04188597       3
Cr    -0.05539019   -0.01388915    3.50811418       4
Co    -3.62538512    0.00821428    0.00726875       5
Ni     3.52381643    0.01035681   -0.00256407       6
Ni    -1.81954768    1.75941054   -0.04851120       7
Co     1.70904182    1.81715725   -0.03799971       8
Ni    -1.78054118    0.01905035   -1.77854466       9
Ni     1.71285018    0.03371984   -1.78605290      10
Ni    -0.04397982    1.77920531    1.75902124      11
Co    -0.01674228   -1.78132637   -1.81735752      12
Co    -0.04559489   -1.76112896    1.76542413      13
Co    -1.80608028   -0.01520123    1.76729863      14
Cr     1.70879235   -0.00908019    1.72252237      15
Ni    -1.80869464   -1.76234365   -0.03162124      16
Co     1.75010969   -1.75582148   -0.02655766      17
Co     0.00000000    0.00000000    0.00000000      18
          18
Lattice="  24.8920   0.0000   0.0000   0.0000  24.8920   0.0000   0.0000   0.0000  24.8920 " ConfE="      -5936.0466" DelE="          0.7620"
Co    -0.00409323    3.47012990   -0.07088615       1
Cr    -0.05491396   -0.03569309   -3.43769491       2
Cr    -0.02116054   -3.51108196   -0.05187337       3
Cr    -0.06550414    0.00876455    3.54600127       4
Co    -3.69541133   -0.00069880    0.02872979       5
Ni     3.57761102    0.00712038    0.00159241       6
Ni    -1.94444187    1.77003529   -0.02544559       7
Co     1.86701460    1.84070442    0.01082763       8
Ni    -1.97082161    0.00380200   -1.80819462       9
Ni     1.93539959   -0.01738343   -1.87937505      10
Ni    -0.04397403    1.69673041    1.67309788      11
Co    -0.02039633   -1.67846326   -1.82064825      12
Co    -0.03767789   -1.67022212    1.71972870      13
Co    -1.82703420   -0.01218013    1.75214469      14
Cr     1.69473598   -0.01190899    1.67230331      15
Ni    -1.78571405   -1.70934494   -0.05438352      16
Co     1.68822516   -1.63933113   -0.03428372      17
Co     0.03187190    0.73153562   -0.80735704      18
          18
Lattice="  24.8920   0.0000   0.0000   0.0000  24.8920   0.0000   0.0000   0.0000  24.8920 " ConfE="      -5937.0747" DelE="         -0.2660"
Co    -0.02594048    3.57075179   -0.00967016       1
Cr    -0.04520017   -0.13253221   -3.56861833       2
Cr    -0.01666048   -3.53219769   -0.03514182       3
Cr    -0.06061731   -0.00980786    3.55517872       4
Co    -3.64106976    0.00402538    0.01511401       5
Ni     3.54180762    0.00211671    0.00427046       6
Ni    -1.82489366    1.73352640   -0.02801289       7
Co     1.71116934    1.77492973   -0.00678815       8
Ni    -1.79385379   -0.00339648   -1.76500337       9
Ni     1.71900712    0.01374154   -1.77089960      10
Ni    -0.04631587    1.71075601    1.71688998      11
Co    -0.01735072   -1.74209418   -1.80913062      12
Co    -0.02638909   -1.69437081    1.74426940      13
Co    -1.80472110   -0.02401487    1.76635809      14
Cr     1.69297101   -0.02434999    1.72155355      15
Ni    -1.77766033   -1.74530797   -0.02634497      16
Co     1.70400204   -1.69964114   -0.00873144      17
Co    -0.03844718    1.75968074   -1.80783387      18
