          18
Lattice="  24.8920   0.0000   0.0000   0.0000  24.8920   0.0000   0.0000   0.0000  24.8920 " ConfE="      -5950.8188" DelE="          0.0000"
Cr     0.15668417    0.01288651   -3.42132476       1
Ni     3.52582836   -0.01714231    0.02216750       2
Co    -0.01401186   -0.00389466    3.63057099       3
Co    -3.54803924   -0.00470976    0.06718066       4
Ni     0.02165144   -3.57661854    0.05306122       5
Ni     0.03454532    3.51442546    0.03526982       6
Ni     0.05308822   -1.76274536   -1.71143110       7
Cr     0.06881079    1.70526050   -1.72361884       8
Co     1.76258061   -1.77808478    0.06467030       9
Ni     1.79904075    1.73980946    0.02472783      10
Co    -1.81566159   -0.02770443   -1.73399145      11
Ni     1.75226349   -0.02711086    1.85105879      12
Cr    -1.77005494   -0.04382627    1.82920696      13
Cr    -1.74798742   -1.78825531    0.08119081      14
Cr    -1.76134479    1.71906614    0.00407769      15
Co    -0.02882203   -1.76876862    1.82430527      16
Ni     0.01014385    1.75141909    1.82546260      17
Co     0.00000000    0.00000000    0.00000000      18
          18
Lattice="  24.8920   0.0000   0.0000   0.0000  24.8920   0.0000   0.0000   0.0000  24.8920 " ConfE="      -5949.8831" DelE="          0.9356"
Cr     0.13589790    0.00421130   -3.46417553       1
Ni     3.49287810   -0.01304046    0.01166014       2
Co    -0.00796569   -0.00907846    3.63228598       3
Co    -3.54556989   -0.01179805    0.05687944       4
Ni     0.01670511   -3.63145849    0.06527839       5
Ni     0.02698589    3.55230027    0.05935622       6
Ni    -0.02342453   -1.95111488   -1.76712134       7
Cr    -0.02056231    1.92032598   -1.75985968       8
Co     1.74301558   -1.83769627    0.07444089       9
Ni     1.83079205    1.84926012    0.09394417      10
Co    -1.70604759   -0.01980225   -1.68069843      11
Ni     1.73292110   -0.03208664    1.80993648      12
Cr    -1.72595256   -0.05595146    1.79657281      13
Cr    -1.67594996   -1.74143632    0.07009083      14
Cr    -1.69575560    1.65019470    0.00770902      15
Co    -0.04117639   -1.74781898    1.77489200      16
Ni     0.01369324    1.72412976    1.78818845      17
Co     0.91257497    0.05323694   -1.08458209      18
          18
Lattice="  24.8920   0.0000   0.0000   0.0000  24.8920   0.0000   0.0000   0.0000  24.8920 " ConfE="      -5950.6497" DelE="          0.1691"
Cr     0.05495170   -0.00955997   -3.50664526       1
Ni     3.57188005   -0.01430854    0.05204073       2
Co    -0.01392236   -0.00490467    3.64193905       3
Co    -3.57075556   -0.00496967    0.07068228       4
Ni     0.01762580   -3.59047087    0.05893087       5
Ni     0.02845995    3.52242880    0.03539987       6
Ni     0.01866288   -1.74276013   -1.66162192       7
Cr     0.05855174    1.68834604   -1.70668319       8
Co     1.74793437   -1.75842979    0.07533330       9
Ni     1.78242033    1.73733101    0.05641413      10
Co    -1.76538003   -0.00464205   -1.67104697      11
Ni     1.74166492   -0.02923281    1.83100830      12
Cr    -1.75793701   -0.04832283    1.81593886      13
Cr    -1.72526978   -1.74392838    0.10221717      14
Cr    -1.72815695    1.66111827    0.00910125      15
Co    -0.05132949   -1.73054505    1.78130358      16
Ni     0.00007109    1.71601181    1.79339308      17
Co     1.75734225    0.02600415   -1.73311209      18
