          18
Lattice="  24.8920   0.0000   0.0000   0.0000  24.8920   0.0000   0.0000   0.0000  24.8920 " ConfE="      -5928.2360" DelE="          0.0000"
Ni     3.67749126    0.09878075   -0.03581048       1
Cr    -3.12850559   -0.13640203    0.00703889       2
Cr     0.03204000   -3.36187582   -0.04237504       3
Cr     0.18856216    3.69691538   -0.06226105       4
Co     0.09147682    0.12239473    3.51952167       5
Cr     0.10255769    0.07780680   -3.58166427       6
Ni     0.10019993   -1.68809502    1.77112360       7
Ni     0.10883471   -1.69143070   -1.80833522       8
Ni     1.88819229    1.84548755   -0.03254662       9
Cr    -1.57034429    0.08827126    1.83269913      10
Co    -1.62942928    0.05423373   -1.79162163      11
Ni     0.14829025    1.87773785    1.74247997      12
Cr     1.90091213   -1.71698873   -0.02166345      13
Co    -1.62869907    1.90774439   -0.01992267      14
Co     1.88242347    0.06478113    1.71101929      15
Cr     1.88048667    0.09788148   -1.78291248      16
Co     0.13668408    1.84385728   -1.80253886      17
Cr     0.00000000    0.00000000    0.00000000      18
          18
Lattice="  24.8920   0.0000   0.0000   0.0000  24.8920   0.0000   0.0000   0.0000  24.8920 " ConfE="      -5927.5794" DelE="          0.6566"
Ni     3.68116144    0.09517015   -0.03854289       1
Cr    -3.32530944   -0.04607518   -0.04156638       2
Cr     0.05142970   -3.39658020   -0.03814764       3
Cr     0.17351077    3.67189175   -0.05986505       4
Co     0.11454639    0.12386783    3.56916229       5
Cr     0.12605525    0.08115698   -3.63815146       6
Ni     0.15395885   -1.71869248    1.87916960       7
Ni     0.12742425   -1.71371398   -1.87720260       8
Ni     1.86969246    1.82711559   -0.02947386       9
Cr    -1.57104970    0.16126630    1.99513736      10
Co    -1.64308167    0.07414287   -1.92390468      11
Ni     0.14336809    1.83618993    1.72528442      12
Cr     1.85411911   -1.69488184    0.00303027      13
Co    -1.61771975    1.82781590   -0.02733697      14
Co     1.86294790    0.04243669    1.69108301      15
Cr     1.77050486    0.07382068   -1.68863142      16
Co     0.13412906    1.80120626   -1.79354634      17
Cr    -0.78356273   -0.62591285    0.05843228      18
          18
Lattice="  24.8920   0.0000   0.0000   0.0000  24.8920   0.0000   0.0000   0.0000  24.8920 " ConfE="      -5928.0503" DelE="          0.1857"
Ni     3.71727054    0.10999238   -0.03734720       1
Cr    -3.43371275    0.09682604   -0.02067326       2
Cr     0.18348450   -3.51853450   -0.05310735       3
Cr     0.18752970    3.68469221   -0.05989516       4
Co     0.09123272    0.12434905    3.52985799       5
Cr     0.10728423    0.07741718   -3.56111988       6
Ni     0.13869340   -1.66398757    1.71946990       7
Ni     0.18105330   -1.68001045   -1.76531598       8
Ni     1.90873375    1.85071689   -0.03717060       9
Cr    -1.57392461    0.08368702    1.69721536      10
Co    -1.59821957    0.06165510   -1.72378291      11
Ni     0.15725755    1.83805210    1.70730122      12
Cr     1.91058736   -1.67660333   -0.01140056      13
Co    -1.60454626    1.84918416   -0.02128157      14
Co     1.89920120    0.05633123    1.67741432      15
Cr     1.87284704    0.11043808   -1.73913288      16
Co     0.16597739    1.83243982   -1.79995591      17
Cr    -1.61216300   -1.65120643   -0.05401765      18
