          18
Lattice="  24.8920   0.0000   0.0000   0.0000  24.8920   0.0000   0.0000   0.0000  24.8920 " ConfE="      -5936.6596" DelE="          0.0000"
Ni    -0.00252850    0.01750913    3.51411950       1
Cr     3.39331215   -0.03283728    0.15227563       2
Cr    -0.10402500    0.01349851   -3.57326523       3
Ni    -3.57062151    0.03234283   -0.01208735       4
Co    -0.02119712    3.54146490   -0.04258160       5
Cr    -0.07803307   -3.50701089    0.05283464       6
Ni    -0.00017076    1.76614228    1.74466212       7
Co     0.00823644   -1.74674398    1.76379906       8
Co     1.76851680    1.75410236   -0.00387957       9
Co     1.79597557   -1.74728077    0.03858042      10
Ni    -1.82316913    0.03961575    1.76123621      11
Ni     1.75742474   -0.00112917   -1.82493186      12
Co    -1.79699240    0.02353772   -1.78120846      13
Co    -1.79736140    1.83345665   -0.00220073      14
Co    -1.83309537   -1.79423050   -0.00556074      15
Cr    -0.00783595    1.77211876   -1.78621678      16
Ni    -0.05159472   -1.75540127   -1.77513709      17
Ni     0.00000000    0.00000000    0.00000000      18
          18
Lattice="  24.8920   0.0000   0.0000   0.0000  24.8920   0.0000   0.0000   0.0000  24.8920 " ConfE="      -5936.1281" DelE="          0.5315"
Ni     0.00238047    0.02561733    3.47454365       1
Cr     3.45931120   -0.02329708    0.13271628       2
Cr    -0.08202095    0.02227796   -3.55912157       3
Ni    -3.56243634    0.03369496   -0.00867579       4
Co    -0.04925602    3.61805461   -0.04584686       5
Cr    -0.09861435   -3.59014612    0.00061054       6
Ni    -0.06034769    1.90933523    1.77268722       7
Co    -0.09431762   -1.92074394    1.76978161       8
Co     1.76085175    1.95394081   -0.10392128       9
Co     1.82858342   -1.98344210   -0.02170152      10
Ni    -1.76097126    0.03352779    1.72560024      11
Ni     1.73965009   -0.00721643   -1.70469014      12
Co    -1.73424996    0.03057680   -1.73356551      13
Co    -1.73885065    1.81006012   -0.01371481      14
Co    -1.81278357   -1.79685683   -0.00693883      15
Cr    -0.02471030    1.70378703   -1.69746408      16
Ni    -0.03181980   -1.73904615   -1.72041760      17
Ni     1.05000170   -0.01455404    1.00408150      18
          18
Lattice="  24.8920   0.0000   0.0000   0.0000  24.8920   0.0000   0.0000   0.0000  24.8920 " ConfE="      -5936.6946" DelE="         -0.0350"
Ni    -0.03880253    0.01931143    3.55631785       1
Cr     3.53581538   -0.06182030    0.03128438       2
Cr    -0.10528437    0.01875053   -3.58424840       3
Ni    -3.58464784    0.03629063   -0.01008294       4
Co    -0.03753884    3.58022144   -0.04333006       5
Cr    -0.09063094   -3.54410327    0.03203413       6
Ni    -0.03327830    1.77423896    1.72058697       7
Co    -0.04804520   -1.74343042    1.69799117       8
Co     1.72700773    1.78243694   -0.05781325       9
Co     1.78244315   -1.79917447    0.00920136      10
Ni    -1.79715906    0.04119252    1.74227863      11
Ni     1.74040083   -0.00604427   -1.77346056      12
Co    -1.75632385    0.04220245   -1.73912806      13
Co    -1.77916646    1.82229269   -0.00966217      14
Co    -1.83730818   -1.78522074   -0.01309728      15
Cr    -0.02468360    1.71173893   -1.73537107      16
Ni    -0.04945155   -1.71763943   -1.73133433      17
Ni     1.71076154    0.02374707    1.70914493      18
