          18
Lattice="  24.8920   0.0000   0.0000   0.0000  24.8920   0.0000   0.0000   0.0000  24.8920 " ConfE="      -5937.7725" DelE="          0.0000"
Co     0.01377259    0.01231878   -3.46666389       1
Cr     3.50291340   -0.01741102   -0.04071630       2
Co    -0.00634207   -0.01065895    3.62945286       3
Co    -3.52875548    0.00691129    0.02089575       4
Cr     0.01272465   -3.57005391    0.08080990       5
Co    -0.02455320    3.49187203    0.04592348       6
Cr     0.04195390   -1.68490970   -1.74941845       7
Cr     0.03906180    1.64975994   -1.74674401       8
Co     1.75207501   -1.70965980   -0.05248432       9
Ni     1.76910048    1.75364290    0.05732229      10
Co    -1.81837328   -0.01244426   -1.73413209      11
Co     1.72840952   -0.00108850    1.83082218      12
Ni    -1.80659033   -0.00003525    1.84131451      13
Co    -1.75851651   -1.77360513    0.04410547      14
Cr    -1.78993300    1.74393201   -0.00594028      15
Cr     0.01461795   -1.75460190    1.76811927      16
Cr     0.00406064    1.72979716    1.86849627      17
Cr     0.00000000    0.00000000    0.00000000      18
          18
Lattice="  24.8920   0.0000   0.0000   0.0000  24.8920   0.0000   0.0000   0.0000  24.8920 " ConfE="      -5937.3743" DelE="          0.3982"
Co     0.01247621    0.00893884   -3.43375498       1
Cr     3.55300654    0.00993450   -0.08523682       2
Co     0.00784156    0.01255291    3.58134220       3
Co    -3.54743777   -0.00334544    0.00704787       4
Cr     0.00738326   -3.68322285    0.15268411       5
Co    -0.03449994    3.57149742    0.05265567       6
Cr    -0.10982237   -1.91800819   -1.64475080       7
Cr    -0.02606949    1.90619834   -1.68652700       8
Co     1.80378063   -1.88254781    0.02440368       9
Ni     1.81987619    1.88970063    0.05310632      10
Co    -1.68124621   -0.00724551   -1.66756889      11
Co     1.73054641   -0.00723925    1.68768699      12
Ni    -1.82712933   -0.01148640    1.82749475      13
Co    -1.74899365   -1.77324118    0.03532685      14
Cr    -1.71963768    1.64022970   -0.01830501      15
Cr     0.01775574   -1.58275929    1.51801523      16
Cr     0.01259912    1.54265415    1.58541975      17
Cr     0.97117185   -0.05066061   -0.99595207      18
          18
Lattice="  24.8920   0.0000   0.0000   0.0000  24.8920   0.0000   0.0000   0.0000  24.8920 " ConfE="      -5937.8196" DelE="         -0.0471"
Co    -0.02182153    0.00035916   -3.51858947       1
Cr     3.57943762   -0.04337468    0.04611677       2
Co    -0.01349158   -0.00055712    3.63221694       3
Co    -3.58018619    0.00516124    0.02418019       4
Cr     0.01385241   -3.57969774    0.11267581       5
Co    -0.01803576    3.51518458    0.04278517       6
Cr    -0.07629815   -1.66520199   -1.57956446       7
Cr    -0.03663359    1.47633782   -1.51187392       8
Co     1.72986606   -1.72521288   -0.00580979       9
Ni     1.79379778    1.74991144    0.06875551      10
Co    -1.79064563   -0.02093036   -1.70301017      11
Co     1.69893424   -0.00355943    1.78122841      12
Ni    -1.83612108   -0.00056539    1.83931355      13
Co    -1.76450458   -1.74920277    0.05774973      14
Cr    -1.80931324    1.70606644    0.03215148      15
Cr    -0.00582981   -1.62887573    1.62919598      16
Cr    -0.01213113    1.58181348    1.70069128      17
Cr     1.75218937   -0.06001755   -1.71409282      18
