          18
Lattice="  24.8920   0.0000   0.0000   0.0000  24.8920   0.0000   0.0000   0.0000  24.8920 " ConfE="      -5934.0322" DelE="          0.0000"
Ni    -3.46287611    0.00477565    0.00041431       1
Co     0.07647989   -3.54934545    0.03939305       2
Ni     3.61583676    0.03250967   -0.02846179       3
Cr     0.03832397    3.58506540    0.02757111       4
Cr     0.04908784    0.06397747   -3.56628256       5
Ni     0.03321736    0.00441992    3.54996762       6
Co    -1.69374602    0.04875001   -1.77309072       7
Cr    -1.72987147   -0.06343234    1.76548016       8
Ni     0.04121423   -1.71805770   -1.79448223       9
Co     0.03172287   -1.78652221    1.80840973      10
Ni    -1.72763555    1.80995307   -0.01614110      11
Ni     1.81940917   -1.73219635   -0.02914479      12
Ni     1.79062716    1.79367480   -0.00921938      13
Cr     0.06668658    1.77877532   -1.84102501      14
Cr    -0.01980881    1.77005980    1.79532785      15
Co     1.79816739    0.06040610   -1.80582507      16
Ni     1.79740592    0.02244195    1.77098069      17
Ni     0.00000000    0.00000000    0.00000000      18
          18
Lattice="  24.8920   0.0000   0.0000   0.0000  24.8920   0.0000   0.0000   0.0000  24.8920 " ConfE="      -5933.3960" DelE="          0.6362"
Ni    -3.43881108   -0.01607639   -0.00146059       1
Co     0.06544382   -3.53481215    0.04196433       2
Ni     3.60603399    0.03063191   -0.03609522       3
Cr     0.02953816    3.57891723    0.01622522       4
Cr     0.06951023    0.11188516   -3.69015192       5
Ni     0.03932073    0.02843617    3.60294737       6
Co    -1.67265621    0.09174771   -1.89020125       7
Cr    -1.76393124    0.00547220    1.92061432       8
Ni     0.09575322   -1.70226814   -1.93463546       9
Co     0.14192201   -1.85925140    2.01347327      10
Ni    -1.70488139    1.74145131   -0.03582301      11
Ni     1.72708048   -1.67496042   -0.03162805      12
Ni     1.75456312    1.76842616   -0.01825021      13
Cr     0.03744802    1.68709346   -1.81304638      14
Cr    -0.06092419    1.69004739    1.70704454      15
Co     1.75350373    0.08310874   -1.81060643      16
Ni     1.74921527    0.02807452    1.75414017      17
Ni    -0.97555403   -1.07659085    0.07203366      18
          18
Lattice="  24.8920   0.0000   0.0000   0.0000  24.8920   0.0000   0.0000   0.0000  24.8920 " ConfE="      -5933.9076" DelE="          0.1245"
Ni    -3.48550859    0.02857993   -0.00142907       1
Co     0.08607269   -3.58336158    0.03663388       2
Ni     3.61390265    0.03695138   -0.02929693       3
Cr     0.04496707    3.62088094    0.03264031       4
Cr     0.05971681    0.08184721   -3.62180507       5
Ni     0.03467888    0.01078202    3.57029776       6
Co    -1.62760794    0.07193919   -1.75162489       7
Cr    -1.68098255   -0.02319825    1.76093656       8
Ni     0.06125797   -1.69883159   -1.80690178       9
Co     0.05653350   -1.78463111    1.82558732      10
Ni    -1.67303299    1.77301092   -0.01390540      11
Ni     1.77017605   -1.69873752   -0.02820517      12
Ni     1.74823727    1.77902303   -0.00763642      13
Cr     0.07329690    1.75406789   -1.84113293      14
Cr    -0.02300878    1.76540071    1.77879312      15
Co     1.75204755    0.08428064   -1.79097802      16
Ni     1.75705552    0.03174552    1.74696623      17
Ni    -1.67693876   -1.73598909    0.00329880      18
