          18
Lattice="  24.8920   0.0000   0.0000   0.0000  24.8920   0.0000   0.0000   0.0000  24.8920 " ConfE="      -5946.4240" DelE="          0.0000"
Ni     0.02460774    0.01454438    3.48044751       1
Ni     0.02545609   -3.51293111   -0.06127243       2
Ni     0.01017070    3.53436211   -0.04168720       3
Cr    -3.48644498    0.06261449    0.00596973       4
Co     0.09652369    0.02663210   -3.60569963       5
Cr     3.60432509    0.00333065   -0.10813393       6
Cr     0.08483803   -1.73297731    1.73075155       7
Co     0.06478068    1.78398062    1.73994447       8
Ni     0.02756326   -1.74501166   -1.83301185       9
Co    -1.76348292   -1.71791848   -0.02006749      10
Co    -1.77373616    1.74514111   -0.00662533      11
Co     1.85940228    0.01213235    1.74074978      12
Co     1.82557373   -0.00997297   -1.83258132      13
Co    -1.74560142    0.01380507   -1.83056888      14
Cr     0.04840388    1.74303416   -1.77264732      15
Co     1.85291916   -1.76444626   -0.06034154      16
Co     1.81820731    1.78236323   -0.05716367      17
Ni     0.00000000    0.00000000    0.00000000      18
          18
Lattice="  24.8920   0.0000   0.0000   0.0000  24.8920   0.0000   0.0000   0.0000  24.8920 " ConfE="      -5945.8955" DelE="          0.5284"
Ni     0.02363740    0.00837820    3.46174427       1
Ni     0.05806359   -3.58700950   -0.07803566       2
Ni     0.04844167    3.61379656   -0.06637166       3
Cr    -3.48795541    0.05906443   -0.00481926       4
Co     0.09681401    0.01711847   -3.60642007       5
Cr     3.60618407   -0.00509764   -0.09094517       6
Cr     0.15042468   -1.90875511    1.72732928       7
Co     0.14302551    1.94737250    1.76411185       8
Ni     0.03203809   -1.72919955   -1.78630676       9
Co    -1.79119970   -1.91740403   -0.11662951      10
Co    -1.74875654    1.92630980   -0.10781908      11
Co     1.79118453    0.00895827    1.69811001      12
Co     1.80272772   -0.01352383   -1.80475568      13
Co    -1.71845650    0.01454853   -1.75816762      14
Cr     0.05387565    1.67049190   -1.69084391      15
Co     1.81780890   -1.75128879   -0.04588453      16
Co     1.77092413    1.75100743   -0.06449081      17
Ni    -1.05395719   -0.00397987    1.07915395      18
          18
Lattice="  24.8920   0.0000   0.0000   0.0000  24.8920   0.0000   0.0000   0.0000  24.8920 " ConfE="      -5946.3225" DelE="          0.1015"
Ni     0.04803746    0.01257513    3.52571817       1
Ni     0.03477871   -3.53396716   -0.07161244       2
Ni     0.02282624    3.56045464   -0.05066094       3
Cr    -3.55670065    0.04247613   -0.05538369       4
Co     0.09793607    0.02290133   -3.62539329       5
Cr     3.62411822    0.00223740   -0.11036298       6
Cr     0.12624719   -1.69879949    1.65252260       7
Co     0.09238843    1.78271818    1.71149525       8
Ni     0.03600854   -1.71639995   -1.80910660       9
Co    -1.73449814   -1.73486794   -0.06424160      10
Co    -1.73291754    1.78542666   -0.06993648      11
Co     1.80605799   -0.00172495    1.70321839      12
Co     1.80861703   -0.00396783   -1.81592143      13
Co    -1.71413462    0.02710189   -1.78872820      14
Cr     0.04569990    1.67177390   -1.71596145      15
Co     1.83541687   -1.74781306   -0.06471092      16
Co     1.78750434    1.75222375   -0.06925063      17
Ni    -1.66443048    0.03014576    1.65589510      18
