          18
Lattice="  24.8920   0.0000   0.0000   0.0000  24.8920   0.0000   0.0000   0.0000  24.8920 " ConfE="      -5944.7048" DelE="          0.0000"
Ni     0.03854707   -0.02525872   -3.53817552       1
Ni    -3.44082558    0.00225935   -0.02951682       2
Ni     0.07945591    3.54054704   -0.00742772       3
Ni     0.06770992   -3.55712834    0.02444516       4
Co     0.05152593    0.01372645    3.56175286       5
Cr     3.63092736    0.03451743    0.04609193       6
Ni     0.03989246    1.73930044   -1.76700274       7
Ni     1.82306656   -0.00006130    1.80264526       8
Cr    -1.67350039    1.70229304   -0.02494783       9
Cr    -1.65391002   -1.69363387   -0.04880011      10
Co     0.01578296   -1.75585374   -1.71340253      11
Ni     0.05589313   -1.77516106    1.80423598      12
Cr     1.82131438    0.00826543   -1.75963789      13
Cr    -1.70640616    0.03612212    1.78620531      14
Co     1.84812574    1.73037467   -0.00202840      15
Cr     0.10369595    1.78550531    1.78850109      16
Cr     1.74731421   -1.72017099   -0.05154071      17
Co     0.00000000    0.00000000    0.00000000      18
          18
Lattice="  24.8920   0.0000   0.0000   0.0000  24.8920   0.0000   0.0000   0.0000  24.8920 " ConfE="      -5943.4951" DelE="          1.2097"
Ni     0.02050309   -0.01634682   -3.54772844       1
Ni    -3.45999869    0.00924588    0.01237836       2
Ni     0.16839659    3.52209660   -0.01290185       3
Ni     0.08767418   -3.59135920    0.03571373       4
Co     0.04651837    0.00767910    3.59103788       5
Cr     3.57453226    0.08546613    0.06051697       6
Ni     0.05012305    1.88877626   -1.91429596       7
Ni     1.87748239   -0.04159776    1.93674304       8
Cr    -1.60778525    1.86207053    0.05970123       9
Cr    -1.70104246   -1.86249004    0.05453144      10
Co     0.10602658   -1.84762929   -1.72956155      11
Ni     0.06553195   -1.74195273    1.77114758      12
Cr     1.76711489   -0.05267359   -1.87767290      13
Cr    -1.62032377    0.05652496    1.67643762      14
Co     1.06616285    0.95684127   -0.02608475      15
Cr     0.12741371    1.79366097    1.86093515      16
Cr     1.69546347   -1.65536778   -0.04679183      17
Co    -1.22504375    0.01063222   -1.10277439      18
          18
Lattice="  24.8920   0.0000   0.0000   0.0000  24.8920   0.0000   0.0000   0.0000  24.8920 " ConfE="      -5944.4863" DelE="          0.2185"
Ni     0.06306415   -0.01352404   -3.54053366       1
Ni    -3.48891672    0.00635578    0.01634958       2
Ni     0.12356160    3.51947408   -0.00034818       3
Ni     0.07685960   -3.56159364    0.02624860       4
Co     0.05964302    0.02024528    3.55225380       5
Cr     3.60234356    0.09488674    0.04127720       6
Ni     0.10300867    1.77899189   -1.74860857       7
Ni     1.83517054    0.02925825    1.78169312       8
Cr    -1.69068642    1.75429147    0.00652781       9
Cr    -1.68468875   -1.73405042   -0.01393369      10
Co     0.06833718   -1.76907534   -1.71082482      11
Ni     0.06581352   -1.77024148    1.79502367      12
Cr     1.81261701    0.05631255   -1.70717121      13
Cr    -1.68870662    0.04321986    1.75134049      14
Co     0.10293632    0.04555749    0.02922635      15
Cr     0.12489597    1.78435268    1.77471581      16
Cr     1.78176098   -1.74386771   -0.04176378      17
Co    -1.70813615    0.04463562   -1.71262637      18
