          18
Lattice="  24.8920   0.0000   0.0000   0.0000  24.8920   0.0000   0.0000   0.0000  24.8920 " ConfE="      -5935.3945" DelE="          0.0000"
Cr     3.50831277   -0.07483003    0.06095570       1
Ni    -0.02016236   -0.00766616    3.55413096       2
Cr     0.05110289    3.44216105    0.04227373       3
Ni    -3.56524446   -0.01048491    0.01603510       4
Cr    -0.09199933   -0.01609098   -3.52572179       5
Cr    -0.07935978   -3.57641288    0.05457877       6
Ni     1.74933804    0.03159446    1.74198414       7
Ni     1.77407922   -0.02699045   -1.75420665       8
Co    -0.01057199    1.80915795    1.71827974       9
Ni    -1.79517361   -0.00017448    1.78755995      10
Cr     0.03053336    1.75158766   -1.73284298      11
Ni    -0.04131092   -1.79336886   -1.74621854      12
Co    -1.79638152    1.77961293    0.01179691      13
Co     1.79740894   -1.85747535    0.03831105      14
Co    -0.02158964   -1.81666947    1.77441681      15
Co    -1.82707771   -1.82853493    0.01205675      16
Co    -1.79036073   -0.01504823   -1.76063485      17
Ni     0.00000000    0.00000000    0.00000000      18
          18
Lattice="  24.8920   0.0000   0.0000   0.0000  24.8920   0.0000   0.0000   0.0000  24.8920 " ConfE="      -5935.0493" DelE="          0.3452"
Cr     3.40623560   -0.04345579    0.07117663       1
Ni    -0.03747436   -0.01638468    3.61456176       2
Cr     0.05003391    3.35762766    0.04069605       3
Ni    -3.56062997    0.00023466    0.01725715       4
Cr    -0.10117985   -0.10433489   -3.58831636       5
Cr    -0.07268284   -3.58919027    0.05322846       6
Ni     1.75105251   -0.01600384    1.88035446       7
Ni     1.82474374   -0.06847207   -1.93748640       8
Co    -0.03737248    1.82379520    1.88041452       9
Ni    -1.76229734    0.00940018    1.77492601      10
Cr    -0.03956215    1.77005180   -2.00243535      11
Ni    -0.01583849   -1.74943848   -1.71067074      12
Co    -1.72623687    1.76486779    0.00439753      13
Co     1.77837863   -1.79692563    0.03574916      14
Co    -0.02851370   -1.78883658    1.75272372      15
Co    -1.79955191   -1.80491653    0.01360120      16
Co    -1.74157280    0.00057508   -1.72865761      17
Ni     0.54390804    0.57244805   -0.09056264      18
          18
Lattice="  24.8920   0.0000   0.0000   0.0000  24.8920   0.0000   0.0000   0.0000  24.8920 " ConfE="      -5935.5496" DelE="         -0.1551"
Cr     3.53449293   -0.11938438    0.07088220       1
Ni    -0.02989045   -0.01740224    3.58000563       2
Cr    -0.02867482    3.55736064    0.05604044       3
Ni    -3.56891049   -0.00467227    0.01823972       4
Cr    -0.10416018   -0.04248464   -3.56476992       5
Cr    -0.07758204   -3.59384825    0.05657151       6
Ni     1.70181027   -0.01987272    1.75732818       7
Ni     1.74107219   -0.05168097   -1.75502190       8
Co    -0.03970260    1.78777545    1.75144993       9
Ni    -1.77357881   -0.00580680    1.77173067      10
Cr    -0.04286090    1.68764424   -1.73739381      11
Ni    -0.04061772   -1.76785536   -1.70517213      12
Co    -1.69598837    1.73640157   -0.00072314      13
Co     1.78486723   -1.83320312    0.04190330      14
Co    -0.03952831   -1.80347423    1.73663612      15
Co    -1.81726513   -1.81967766    0.01626768      16
Co    -1.74870286   -0.01051104   -1.72739937      17
Ni     1.70925933    1.70459246    0.00148338      18
