          18
Lattice="  24.8920   0.0000   0.0000   0.0000  24.8920   0.0000   0.0000   0.0000  24.8920 " ConfE="      -5932.5073" DelE="          0.0000"
Co    -3.56345616    0.00711284   -0.03786794       1
Ni    -0.05349891   -0.01642208    3.45873608       2
Ni     3.54812380    0.00704621   -0.06847860       3
Co    -0.00653185    0.00143784   -3.62801934       4
Ni    -0.02967593    3.55837154   -0.04610362       5
Cr    -0.02235557   -3.53080640   -0.04512661       6
Cr    -1.74146313    1.64657906    0.06116180       7
Ni    -1.79159051   -1.73620270   -0.00397378       8
Cr    -0.10969480    1.80640832    1.80556049       9
Co    -0.02324013   -1.76120462    1.71132022      10
Cr    -1.75443242   -0.02806990   -1.85773209      11
Cr     1.83212563   -0.03090482    1.75429694      12
Cr     1.74211352    0.08119682   -1.88355631      13
Ni    -0.03819772    1.76412604   -1.82410840      14
Co    -0.00751842   -1.76875918   -1.82535585      15
Cr     1.70462687    1.73043614    0.04425725      16
Cr     1.73085566   -1.76158885   -0.03957915      17
Co     0.00000000    0.00000000    0.00000000      18
          18
Lattice="  24.8920   0.0000   0.0000   0.0000  24.8920   0.0000   0.0000   0.0000  24.8920 " ConfE="      -5931.6146" DelE="          0.8926"
Co    -3.51965708   -0.00436124   -0.02249085       1
Ni    -0.05018475   -0.03102379    3.46949569       2
Ni     3.53940322    0.02388988   -0.04836435       3
Co    -0.01228060    0.00580150   -3.63515833       4
Ni    -0.01239369    3.59356372   -0.05531549       5
Cr     0.00149380   -3.64931590   -0.09773403       6
Cr    -1.79551861    1.83614170   -0.07770793       7
Ni    -1.76941771   -1.86069718   -0.05317824       8
Cr    -0.07477200    1.96815812    1.87156684       9
Co     0.01592038   -1.90508748    1.69716872      10
Cr    -1.68051863   -0.05175948   -1.75685023      11
Cr     1.71363851   -0.04724091    1.74358258      12
Cr     1.69233198    0.08246270   -1.85406178      13
Ni    -0.04768812    1.75175099   -1.80753798      14
Co    -0.00070016   -1.75915564   -1.79549894      15
Cr     1.54842070    1.59720730    0.08370128      16
Cr     1.63865700   -1.63496379   -0.03363782      17
Co    -1.07950877    0.09893503    1.12758674      18
          18
Lattice="  24.8920   0.0000   0.0000   0.0000  24.8920   0.0000   0.0000   0.0000  24.8920 " ConfE="      -5931.9664" DelE="          0.5408"
Co    -3.59274346    0.01502809   -0.07047104       1
Ni    -0.03001352   -0.02270463    3.52650017       2
Ni     3.55494632    0.02383018   -0.05499470       3
Co    -0.00705066    0.00411097   -3.65121287       4
Ni    -0.01116642    3.56695232   -0.05883275       5
Cr    -0.00235557   -3.55641414   -0.06519125       6
Cr    -1.60480857    1.59037878    0.04116734       7
Ni    -1.75722270   -1.74706406   -0.04855438       8
Cr    -0.08584276    1.83362960    1.84827034       9
Co     0.01783309   -1.71985672    1.67473685      10
Cr    -1.73861247   -0.02531809   -1.81911473      11
Cr     1.78683279   -0.05172821    1.77857936      12
Cr     1.73522045    0.08596089   -1.88681371      13
Ni    -0.03373316    1.74266764   -1.83708315      14
Co     0.00507506   -1.73346057   -1.80792879      15
Cr     1.53911102    1.54919872    0.07371860      16
Cr     1.66609642   -1.62504142   -0.05559681      17
Co    -1.75284589    0.00146467    1.68553873      18
