          18
Lattice="  24.8920   0.0000   0.0000   0.0000  24.8920   0.0000   0.0000   0.0000  24.8920 " ConfE="      -5948.6628" DelE="          0.0000"
Co    -0.04626661    3.54192580    0.02492507       1
Ni    -3.53342489    0.03804559   -0.00652120       2
Cr    -0.00767904   -3.55773613    0.02723088       3
Cr     3.45951374   -0.03542990    0.01594530       4
Ni    -0.06101093    0.02109203   -3.53163074       5
Ni    -0.05135245   -0.00785502    3.55980730       6
Ni    -0.11022234    1.78885620   -1.72495966       7
Co    -0.00433292    1.79980242    1.78220381       8
Co    -1.80561047    0.00838853   -1.77918418       9
Ni    -1.76381678    0.03705590    1.76156222      10
Co     1.76785929    1.74552554    0.01494680      11
Ni    -1.79808714   -1.77746078   -0.00189500      12
Co     1.74183813   -1.81742559    0.01553923      13
Cr     1.64961218   -0.00447752   -1.65716309      14
Co     1.73351888   -0.01856549    1.76689149      15
Co    -0.03603482   -1.79652248   -1.74284396      16
Cr    -0.02704897   -1.79932235    1.74381808      17
Co     0.00000000    0.00000000    0.00000000      18
          18
Lattice="  24.8920   0.0000   0.0000   0.0000  24.8920   0.0000   0.0000   0.0000  24.8920 " ConfE="      -5947.5747" DelE="          1.0881"
Co    -0.05695605    3.48955957    0.01268417       1
Ni    -3.51179140    0.04220305   -0.00481555       2
Cr    -0.02680568   -3.56455089    0.03264879       3
Cr     3.46711473   -0.01341966    0.00210486       4
Ni    -0.05496552    0.02206466   -3.58560361       5
Ni    -0.04602960   -0.02809675    3.62289967       6
Ni    -0.06441622    1.83415263   -1.89719442       7
Co     0.04770154    1.80550881    1.93530340       8
Co    -1.83382004   -0.03164327   -1.90395454       9
Ni    -1.82425099   -0.04057019    1.95196744      10
Co     1.65974583    1.67062465   -0.00348553      11
Ni    -1.75090067   -1.69969483    0.00824529      12
Co     1.70196701   -1.77628488    0.00805292      13
Cr     1.57760926    0.00232223   -1.62644212      14
Co     1.67061309   -0.03855103    1.74240766      15
Co    -0.02676134   -1.73734973   -1.72634591      16
Cr    -0.02034675   -1.75271948    1.72625211      17
Co    -0.94328563    0.93607934    0.03347590      18
          18
Lattice="  24.8920   0.0000   0.0000   0.0000  24.8920   0.0000   0.0000   0.0000  24.8920 " ConfE="      -5948.3310" DelE="          0.3318"
Co    -0.03153425    3.57420552    0.01681936       1
Ni    -3.58097774    0.00115986   -0.00624500       2
Cr    -0.01243614   -3.59209810    0.02540955       3
Cr     3.48632080   -0.03085951    0.00395907       4
Ni    -0.05953247    0.02043747   -3.55172905       5
Ni    -0.05222424   -0.01710679    3.57782212       6
Ni    -0.06956847    1.76411317   -1.73830163       7
Co    -0.00710470    1.79101334    1.77340234       8
Co    -1.79336816   -0.00227451   -1.78187253       9
Ni    -1.72524707    0.00980743    1.74401286      10
Co     1.70793099    1.68426831    0.00151783      11
Ni    -1.75462085   -1.73930677   -0.00283446      12
Co     1.70993803   -1.78684271    0.00732867      13
Cr     1.62676859   -0.02201171   -1.62345316      14
Co     1.66954835   -0.03277567    1.72374041      15
Co    -0.01687450   -1.75291222   -1.72160371      16
Cr    -0.00158525   -1.79790459    1.71817919      17
Co    -1.83208741    1.79113979   -0.03074795      18
