          18
Lattice="  24.8920   0.0000   0.0000   0.0000  24.8920   0.0000   0.0000   0.0000  24.8920 " ConfE="      -5934.7632" DelE="          0.0000"
Ni    -0.00385685    3.47039610   -0.03272215       1
Ni     3.57088865   -0.02567849    0.01508988       2
Co    -3.45556057   -0.04531751    0.07725187       3
Cr     0.01509151   -0.05133259    3.57093745       4
Cr    -0.00422755    0.02294133   -3.56901918       5
Cr    -0.00273380   -3.56913247    0.02062255       6
Ni    -0.01598960    1.73735874    1.75862779       7
Cr    -0.03070766    1.74645862   -1.78952912       8
Cr    -1.78905432    0.01295503    1.75255724       9
Co    -1.70484620   -0.03579692   -1.77581586      10
Ni     1.79306241   -0.02895141   -1.77414070      11
Ni     1.79271534   -1.80130299    0.01082897      12
Co    -0.00756743   -1.78465121    1.78676409      13
Cr    -0.01127188   -1.78886475   -1.79736193      14
Cr    -1.74076797   -1.78802301    0.03858590      15
Co     1.79601716    1.75184347   -0.01689838      16
Cr     1.79062052   -0.00624234    1.80876813      17
Ni     0.00000000    0.00000000    0.00000000      18
          18
Lattice="  24.8920   0.0000   0.0000   0.0000  24.8920   0.0000   0.0000   0.0000  24.8920 " ConfE="      -5934.1799" DelE="          0.5834"
Ni    -0.00924729    3.42543277   -0.02267140       1
Ni     3.55691430   -0.02611029    0.01762620       2
Co    -3.41611034   -0.05737870    0.04621643       3
Cr     0.08789506   -0.08051709    3.64569069       4
Cr     0.03072299    0.02329232   -3.64727864       5
Cr    -0.02352412   -3.59187430    0.01228895       6
Ni     0.04656947    1.78649459    1.92119155       7
Cr     0.04346082    1.77250736   -1.93026134       8
Cr    -1.74486247   -0.04385441    1.95186077       9
Co    -1.71158635   -0.13814849   -2.00420180      10
Ni     1.77153074   -0.02958096   -1.77754064      11
Ni     1.74818724   -1.77066951    0.00334066      12
Co    -0.01451918   -1.75514317    1.75250162      13
Cr    -0.02327198   -1.72872409   -1.75376845      14
Cr    -1.68482552   -1.68705804    0.03357869      15
Co     1.73296339    1.69490059   -0.00259484      16
Cr     1.71581748    0.00005574    1.77304008      17
Ni    -0.79158075    0.74971064   -0.01529707      18
          18
Lattice="  24.8920   0.0000   0.0000   0.0000  24.8920   0.0000   0.0000   0.0000  24.8920 " ConfE="      -5934.5670" DelE="          0.1963"
Ni     0.02114608    3.50019744   -0.02160060       1
Ni     3.58177557   -0.02900820    0.01506642       2
Co    -3.54291842   -0.07915484    0.06405729       3
Cr     0.06891396   -0.06263359    3.62278689       4
Cr     0.03226717    0.04122058   -3.62503641       5
Cr    -0.00339914   -3.58406785    0.01351688       6
Ni     0.02067513    1.70372029    1.76617049       7
Cr     0.01197306    1.69066453   -1.78021563       8
Cr    -1.70267872   -0.05543587    1.78484301       9
Co    -1.67319341   -0.08084550   -1.75855431      10
Ni     1.77574884   -0.03381158   -1.75539942      11
Ni     1.77238569   -1.78051910    0.00269633      12
Co     0.00470258   -1.73458897    1.73733556      13
Cr    -0.00413637   -1.71521092   -1.76832301      14
Cr    -1.67155475   -1.70288571    0.02868128      15
Co     1.73971995    1.70410940   -0.01592716      16
Cr     1.76470795   -0.01415407    1.78152672      17
Ni    -1.73522595    1.66922845    0.01534422      18
