          18
Lattice="  24.8920   0.0000   0.0000   0.0000  24.8920   0.0000   0.0000   0.0000  24.8920 " ConfE="      -5943.1634" DelE="          0.0000"
Ni     0.05184424    3.47806349   -0.00313781       1
Ni     3.50374648    0.02639294    0.00635250       2
Ni     0.00878203   -3.60693349   -0.01374752       3
Ni     0.00356942   -0.08114139    3.54150194       4
Co    -3.54758203   -0.05039358   -0.04377221       5
Co    -0.01846287   -0.08614625   -3.53285753       6
Ni     0.06177757    1.75922657   -1.75446431       7
Ni     1.77179232    0.00045526   -1.74189438       8
Co     0.05814152    1.70899723    1.75206336       9
Cr     1.76593439    0.01204446    1.76522666      10
Ni    -1.77744807   -0.06009268    1.74724941      11
Ni     0.01444437   -1.83728166    1.74745519      12
Co    -1.80870453    1.72220699   -0.01593884      13
Cr    -1.73585006   -0.05453685   -1.71521108      14
Cr     1.81808916   -1.84928634    0.04011148      15
Co    -1.76562090   -1.83292249   -0.03744803      16
Co     0.03472408   -1.81973219   -1.79502715      17
Cr     0.00000000    0.00000000    0.00000000      18
          18
Lattice="  24.8920   0.0000   0.0000   0.0000  24.8920   0.0000   0.0000   0.0000  24.8920 " ConfE="      -5942.3841" DelE="          0.7794"
Ni     0.06012763    3.44291247   -0.01607231       1
Ni     3.46162477    0.00588518   -0.00790594       2
Ni     0.01446087   -3.61781671   -0.01838764       3
Ni    -0.00229665   -0.08590457    3.57776027       4
Co    -3.54918734   -0.03527469   -0.03664185       5
Co    -0.03224640   -0.10164167   -3.59464305       6
Ni     0.03968539    1.77493748   -1.89004889       7
Ni     1.78065211   -0.04899275   -1.85816547       8
Co    -0.01336839    1.78422546    1.92533331       9
Cr     1.81435865   -0.10131012    1.91059092      10
Ni    -1.70145393   -0.03927226    1.69720696      11
Ni     0.02913319   -1.79342013    1.69978059      12
Co    -1.71565806    1.67886580   -0.04137629      13
Cr    -1.59723751   -0.05957925   -1.58779830      14
Cr     1.80777183   -1.83892719    0.02182695      15
Co    -1.72803091   -1.79377637   -0.05114670      16
Co     0.04460190   -1.78741462   -1.77439615      17
Cr     0.82973536    0.84902622    0.08950925      18
          18
Lattice="  24.8920   0.0000   0.0000   0.0000  24.8920   0.0000   0.0000   0.0000  24.8920 " ConfE="      -5942.8807" DelE="          0.2827"
Ni     0.01622417    3.51041654   -0.00540623       1
Ni     3.57444426   -0.02666852   -0.00545894       2
Ni     0.00133920   -3.62308887   -0.02016760       3
Ni     0.00260912   -0.08789251    3.54748621       4
Co    -3.57913235   -0.04665036   -0.04672041       5
Co    -0.02910083   -0.09408520   -3.56312769       6
Ni     0.01880045    1.71538512   -1.75618375       7
Ni     1.73774798   -0.03388267   -1.72752808       8
Co     0.04936212    1.70160742    1.75405055       9
Cr     1.74878403   -0.02801784    1.74741169      10
Ni    -1.74606764   -0.06610261    1.70348783      11
Ni     0.00905399   -1.81336056    1.70737949      12
Co    -1.75232216    1.66582161   -0.03409341      13
Cr    -1.73445933   -0.07827527   -1.67765482      14
Cr     1.77764867   -1.80629888    0.03360619      15
Co    -1.75245683   -1.80593877   -0.06441579      16
Co     0.01485530   -1.80943871   -1.79831438      17
Cr     1.76188236    1.70933158    0.02013564      18
