          18
Lattice="  24.8920   0.0000   0.0000   0.0000  24.8920   0.0000   0.0000   0.0000  24.8920 " ConfE="      -5937.6116" DelE="          0.0000"
Cr    -0.08441808    0.05126415    3.57990487       1
Co     0.02776846    3.49281734    0.02474898       2
Ni    -0.02480573   -0.02698846   -3.56124581       3
Ni     0.00414315   -3.56315706    0.00689836       4
Co     3.54628327   -0.03571901   -0.00529034       5
Co    -3.60333060   -0.01946312   -0.03420265       6
Ni     1.69762549    0.00899551    1.79063278       7
Ni    -1.76128383    0.00757110    1.73019986       8
Cr     1.72591325    1.69144194    0.03389988       9
Co    -1.76186104    1.75533291   -0.03658433      10
Ni    -0.01704622   -1.79459036    1.82241150      11
Co     0.02436118    1.78084290   -1.79771986      12
Co     0.01058267   -1.82158946   -1.74429468      13
Cr     1.80201803   -1.78696819    0.04610980      14
Ni    -1.77904205   -1.80727141    0.00195767      15
Ni     1.76414577   -0.04710945   -1.78118733      16
Cr    -1.70228665    0.02284093   -1.69168018      17
Co     0.00000000    0.00000000    0.00000000      18
          18
Lattice="  24.8920   0.0000   0.0000   0.0000  24.8920   0.0000   0.0000   0.0000  24.8920 " ConfE="      -5936.9216" DelE="          0.6899"
Cr    -0.08097364    0.11765029    3.45130035       1
Co     0.02782540    3.48731459    0.03001655       2
Ni    -0.02204629   -0.01853915   -3.54909027       3
Ni    -0.00626114   -3.57967762    0.01354231       4
Co     3.61336940   -0.06409994   -0.01332714       5
Co    -3.66662118   -0.02286788   -0.04743369       6
Ni     1.88589177   -0.09468991    1.80768529       7
Ni    -1.86963145   -0.03355045    1.72237689       8
Cr     1.95168070    1.75715825    0.00344238       9
Co    -1.93015698    1.79937232   -0.06938869      10
Ni    -0.00477929   -1.74958034    1.78922750      11
Co     0.01418245    1.74060906   -1.70408618      12
Co     0.00165071   -1.77459466   -1.68686974      13
Cr     1.79249889   -1.81520285    0.04081948      14
Ni    -1.76909364   -1.77624982    0.00349874      15
Ni     1.73834684   -0.04444671   -1.69802202      16
Cr    -1.65671516    0.05586830   -1.61829942      17
Co     0.06312459    0.97651233    0.79976487      18
          18
Lattice="  24.8920   0.0000   0.0000   0.0000  24.8920   0.0000   0.0000   0.0000  24.8920 " ConfE="      -5937.5709" DelE="          0.0407"
Cr    -0.05978629    0.02842630    3.59777590       1
Co     0.02184643    3.55213995   -0.01486643       2
Ni    -0.02272530   -0.02726116   -3.56767465       3
Ni    -0.00361743   -3.58411647    0.00597285       4
Co     3.57220262   -0.04176531   -0.01284442       5
Co    -3.62457219   -0.02250665   -0.03900145       6
Ni     1.70907245   -0.03263811    1.73765416       7
Ni    -1.75795943   -0.02017709    1.70379236       8
Cr     1.72679682    1.68095137    0.01926472       9
Co    -1.76199768    1.71842319   -0.05913390      10
Ni    -0.01358337   -1.77132270    1.79509337      11
Co     0.01876125    1.73539569   -1.73226816      12
Co     0.00569865   -1.79292609   -1.70354546      13
Cr     1.79555473   -1.82369854    0.03481642      14
Ni    -1.76469818   -1.78466687   -0.00720247      15
Ni     1.73392621   -0.05692303   -1.72814339      16
Cr    -1.67628945    0.02091285   -1.67993201      17
Co    -0.02157742    1.74059558    1.70660713      18
