          18
Lattice="  24.8920   0.0000   0.0000   0.0000  24.8920   0.0000   0.0000   0.0000  24.8920 " ConfE="      -5924.0037" DelE="          0.0000"
Ni     0.03481390    3.48044389   -0.05565513       1
Co     3.56666427    0.01543348   -0.03854667       2
Cr     0.05901730   -3.55533948   -0.00236465       3
Cr    -3.56319983   -0.09782909    0.05862277       4
Co     0.01655336   -0.04746978   -3.63274308       5
Cr    -0.03783884    0.04878922    3.45628596       6
Ni     1.78260304    0.02256443   -1.82038308       7
Ni     1.79445179    0.08985822    1.68910518       8
Ni     0.03734687    1.74101963   -1.81074766       9
Ni     1.80116162   -1.76755491   -0.04173256      10
Ni    -1.79655131    1.72405418   -0.06435950      11
Cr    -0.07094199    1.80484961    1.77070146      12
Ni     0.03737116   -1.79143449   -1.82159570      13
Cr    -1.73271776   -0.06602060   -1.84120249      14
Co    -1.76293089   -0.02969402    1.71860694      15
Cr    -1.76128616   -1.77336011   -0.01179732      16
Cr     0.06406616   -1.76501632    1.75562178      17
Co     0.00000000    0.00000000    0.00000000      18
          18
Lattice="  24.8920   0.0000   0.0000   0.0000  24.8920   0.0000   0.0000   0.0000  24.8920 " ConfE="      -5923.1446" DelE="          0.8592"
Ni     0.02241434    3.46652187   -0.07477398       1
Co     3.49591501    0.06560057   -0.01019826       2
Cr     0.11367688   -3.54758184   -0.00129882       3
Cr    -3.56696881   -0.12215830    0.05359634       4
Co     0.01594452   -0.05181049   -3.71094789       5
Cr    -0.03297639    0.03217530    3.56839950       6
Ni     1.79314072    0.02162812   -1.94303261       7
Ni     1.85356407   -0.00717681    1.90999215       8
Ni     0.00017172    1.77215898   -1.97105205       9
Ni     1.73947690   -1.65326279   -0.02782465      10
Ni    -1.71642454    1.65738506   -0.07948722      11
Cr    -0.09602701    1.79594131    1.87562337      12
Ni     0.05730785   -1.74529775   -1.82821206      13
Cr    -1.66630762   -0.04770524   -1.83694296      14
Co    -1.67390926   -0.03889954    1.69571992      15
Cr    -1.66612103   -1.67937252   -0.02755259      16
Cr     0.05865756   -1.68638083    1.75071704      17
Co     0.88820282    1.00167984    0.06932627      18
          18
Lattice="  24.8920   0.0000   0.0000   0.0000  24.8920   0.0000   0.0000   0.0000  24.8920 " ConfE="      -5923.7208" DelE="          0.2830"
Ni     0.00412457    3.52841941   -0.06166503       1
Co     3.58554039   -0.01443121   -0.04121555       2
Cr     0.06526434   -3.58734090   -0.00601495       3
Cr    -3.58871231   -0.11383200    0.05642085       4
Co     0.01464334   -0.05385286   -3.64966903       5
Cr    -0.02839429    0.03820010    3.51375150       6
Ni     1.77486327    0.00403443   -1.83775992       7
Ni     1.76053907    0.01860950    1.71361300       8
Ni     0.02232150    1.71996530   -1.81887378       9
Ni     1.75805952   -1.73388847   -0.04537624      10
Ni    -1.73437770    1.66774404   -0.07297407      11
Cr    -0.04709194    1.76112724    1.74255659      12
Ni     0.02839687   -1.77373030   -1.80535470      13
Cr    -1.72717512   -0.07926940   -1.82968074      14
Co    -1.66632728   -0.05541833    1.66030934      15
Cr    -1.73175981   -1.73934425   -0.01848782      16
Cr     0.04450936   -1.75945175    1.73748988      17
Co     1.74609869    1.73436079   -0.01322461      18
