          18
Lattice="  24.8920   0.0000   0.0000   0.0000  24.8920   0.0000   0.0000   0.0000  24.8920 " ConfE="      -5946.3224" DelE="          0.0000"
Ni     0.05056609    0.00283459    3.44393858       1
Ni    -0.00919293    0.01515811   -3.59596839       2
Co     3.52249617   -0.03092195   -0.02771248       3
Cr    -0.05371293   -3.53900594   -0.01148503       4
Cr    -0.00829943    3.54450161   -0.01110538       5
Co    -3.51925952   -0.01574473   -0.02720244       6
Ni     1.75004711   -1.74395832   -0.02080895       7
Co    -0.02051872   -1.76293219    1.72366719       8
Co    -0.01887406    1.75868545    1.71873447       9
Ni    -1.77845299    1.76912367   -0.04656227      10
Cr     1.75904635    1.64587628    0.07271809      11
Ni    -0.00016391   -1.77808387   -1.81192607      12
Ni     0.01028975    1.76114551   -1.80107812      13
Cr    -1.84243068    0.01544522    1.73312513      14
Co    -1.78189822   -1.80909852   -0.02612465      15
Co    -1.80000770   -0.03207650   -1.80415886      16
Co     1.81186582   -0.00364757   -1.83643666      17
Co     0.00000000    0.00000000    0.00000000      18
          18
Lattice="  24.8920   0.0000   0.0000   0.0000  24.8920   0.0000   0.0000   0.0000  24.8920 " ConfE="      -5945.5871" DelE="          0.7353"
Ni     0.04359589    0.00609726    3.43105069       1
Ni    -0.00251617    0.01371191   -3.58950429       2
Co     3.48845746   -0.05087966   -0.01125163       3
Cr    -0.05449732   -3.63218152   -0.04088023       4
Cr    -0.02805758    3.60905131   -0.03014203       5
Co    -3.51856805   -0.01695666   -0.02707444       6
Ni     1.77426584   -1.89313885   -0.09031776       7
Co    -0.06639691   -1.90698749    1.70927725       8
Co    -0.09634387    1.91174931    1.76010888       9
Ni    -1.73714717    1.74577345   -0.04596009      10
Cr     1.80776383    1.81816275   -0.00729903      11
Ni     0.00778694   -1.77254024   -1.78035834      12
Ni     0.02288968    1.74611964   -1.76186157      13
Cr    -1.73364615    0.00212421    1.65969953      14
Co    -1.75451439   -1.78792562   -0.03243043      15
Co    -1.77433383   -0.03734368   -1.78701543      16
Co     1.77644054   -0.00050893   -1.74392850      17
Co     0.98366053    0.04114130    0.97286805      18
          18
Lattice="  24.8920   0.0000   0.0000   0.0000  24.8920   0.0000   0.0000   0.0000  24.8920 " ConfE="      -5946.3066" DelE="          0.0159"
Ni    -0.00767441    0.00809582    3.50726510       1
Ni    -0.00692260    0.01393690   -3.60973392       2
Co     3.56353611   -0.04189014   -0.05821959       3
Cr    -0.06008551   -3.57950428   -0.02494760       4
Cr    -0.02695311    3.57988678   -0.02050246       5
Co    -3.53716534   -0.01958477   -0.02878144       6
Ni     1.71232312   -1.74630687   -0.05667176       7
Co    -0.05610462   -1.72461576    1.69353148       8
Co    -0.03848430    1.73840972    1.70247275       9
Ni    -1.73881918    1.71441844   -0.04257511      10
Cr     1.75142411    1.66454788    0.03437993      11
Ni    -0.00489095   -1.76577664   -1.80486166      12
Ni     0.01765205    1.73091771   -1.77144601      13
Cr    -1.80040120   -0.00358053    1.71095953      14
Co    -1.76787883   -1.79052488   -0.03470903      15
Co    -1.78908288   -0.04741462   -1.79565029      16
Co     1.80344287    0.00124045   -1.80813961      17
Co     1.74554928    0.01460604    1.68646923      18
