          18
Lattice="  24.8920   0.0000   0.0000   0.0000  24.8920   0.0000   0.0000   0.0000  24.8920 " ConfE="      -5927.6864" DelE="          0.0000"
Co    -0.03490156   -0.01067687   -3.49745249       1
Co    -0.07819071    3.49010442    0.06625706       2
Cr     0.01661446   -0.04672717    3.62736921       3
Co    -0.06278500   -3.63947880    0.06924055       4
Cr    -3.56979380   -0.00305469    0.07269060       5
Cr     3.46764570   -0.02613145    0.04845721       6
Ni    -1.75995318    0.00013624   -1.72654761       7
Co     1.75928083    0.00281657   -1.74106075       8
Cr    -1.79771941    1.75844020    0.05102941       9
Ni     1.70761959    1.76798425    0.02130368      10
Cr    -0.02521090   -1.83237527   -1.69428050      11
Cr    -0.00160533    1.74213746    1.87228789      12
Cr     0.01264365   -1.83366530    1.80652902      13
Cr    -1.77257001   -1.82601201    0.03892579      14
Co     1.73608586   -1.82335554    0.04873301      15
Cr    -1.78516700   -0.00546024    1.82380391      16
Co     1.73999456   -0.04228809    1.84460616      17
Ni     0.00000000    0.00000000    0.00000000      18
          18
Lattice="  24.8920   0.0000   0.0000   0.0000  24.8920   0.0000   0.0000   0.0000  24.8920 " ConfE="      -5927.0593" DelE="          0.6271"
Co    -0.04167827    0.00523914   -3.48178867       1
Co    -0.05274126    3.45829436    0.10534901       2
Cr     0.02081681   -0.11901157    3.65326833       3
Co    -0.06045089   -3.59864359    0.05822893       4
Cr    -3.72263542   -0.03726733    0.07215075       5
Cr     3.60788988   -0.04299183    0.05239149       6
Ni    -1.95376760   -0.06041747   -1.78082724       7
Co     1.89247802   -0.01277835   -1.73641278       8
Cr    -1.95840066    1.68581404    0.14057242       9
Ni     1.86581635    1.74094256    0.10887833      10
Cr    -0.00112583   -1.65516138   -1.61141648      11
Cr     0.01083032    1.53360660    1.75220647      12
Cr     0.08719752   -1.57742805    1.57237337      13
Cr    -1.77117026   -1.70063936   -0.01212924      14
Co     1.76955493   -1.75820015    0.01484789      15
Cr    -1.83022634   -0.08033601    1.81598437      16
Co     1.79841674   -0.03549709    1.82113948      17
Ni    -0.07114641    1.16802971   -1.09045949      18
          18
Lattice="  24.8920   0.0000   0.0000   0.0000  24.8920   0.0000   0.0000   0.0000  24.8920 " ConfE="      -5927.5556" DelE="          0.1308"
Co    -0.04506929   -0.03444283   -3.52275540       1
Co    -0.05820928    3.51428912    0.10713753       2
Cr     0.00885188   -0.11598513    3.64991044       3
Co    -0.05798327   -3.64140771    0.07883648       4
Cr    -3.65077886   -0.00337934    0.07626396       5
Cr     3.55407392   -0.02542493    0.03928555       6
Ni    -1.77596152   -0.03945657   -1.67883227       7
Co     1.76506134   -0.03033443   -1.70287404       8
Cr    -1.80430916    1.70526315    0.09037110       9
Ni     1.72481711    1.71825105    0.05661196      10
Cr    -0.00517888   -1.74312231   -1.59469165      11
Cr     0.00189636    1.57951682    1.79093654      12
Cr     0.07541458   -1.59753094    1.58881493      13
Cr    -1.77865458   -1.80258921    0.05007698      14
Co     1.75711016   -1.79433799    0.03078908      15
Cr    -1.81860845   -0.04310710    1.80710330      16
Co     1.77299727   -0.03840307    1.81949250      17
Ni    -0.01763403    1.69842011   -1.68671976      18
