          18
Lattice="  24.8920   0.0000   0.0000   0.0000  24.8920   0.0000   0.0000   0.0000  24.8920 " ConfE="      -5944.7791" DelE="          0.0000"
Ni     0.03029263    3.39265814    0.05649712       1
Co     0.01958827   -0.09071841   -3.45298169       2
Cr     0.01913192   -3.69719509    0.08091061       3
Co     0.05713250   -0.12207600    3.64443555       4
Cr    -3.49610766   -0.14409345    0.06100686       5
Co     3.59893130   -0.08476093    0.07873027       6
Co    -1.67005820    1.63049992    0.02951922       7
Cr     1.76581475    1.62732151    0.06287770       8
Co    -1.69608368   -0.10273774   -1.69266902       9
Ni     1.76876483   -0.06775202   -1.69020842      10
Cr     0.04470050    1.65298923    1.89348655      11
Co     0.04432477   -1.91584055   -1.70249070      12
Ni     0.06063417   -1.86765768    1.84353345      13
Ni    -1.72588728   -0.10982490    1.85771580      14
Ni     1.82051816   -0.09953153    1.85232265      15
Ni    -1.71614966   -1.86547196    0.07841497      16
Ni     1.83351113   -1.87350006    0.07602000      17
Cr     0.00000000    0.00000000    0.00000000      18
          18
Lattice="  24.8920   0.0000   0.0000   0.0000  24.8920   0.0000   0.0000   0.0000  24.8920 " ConfE="      -5944.3032" DelE="          0.4758"
Ni     0.02794284    3.33674769    0.06770770       1
Co     0.01671678   -0.07893615   -3.40310373       2
Cr     0.02603598   -3.65594568    0.07089725       3
Co     0.05929147   -0.11899790    3.65243482       4
Cr    -3.58913358   -0.17012449    0.08032054       5
Co     3.66314017   -0.10679020    0.08266754       6
Co    -1.86519398    1.69598362    0.08224956       7
Cr     1.89515996    1.62269444    0.10476985       8
Co    -1.81266701   -0.10801097   -1.73363443       9
Ni     1.89184635   -0.13208184   -1.70916784      10
Cr     0.04267440    1.63177579    1.87713958      11
Co     0.05076936   -1.84620381   -1.67801283      12
Ni     0.06769596   -1.83193091    1.82206337      13
Ni    -1.69744235   -0.08018219    1.80403528      14
Ni     1.81699971   -0.09242651    1.82826439      15
Ni    -1.68337101   -1.77752725    0.05569785      16
Ni     1.85237962   -1.85928144    0.07373881      17
Cr    -0.02766121    0.62830235   -0.62008642      18
          18
Lattice="  24.8920   0.0000   0.0000   0.0000  24.8920   0.0000   0.0000   0.0000  24.8920 " ConfE="      -5945.0018" DelE="         -0.2227"
Ni     0.03743820    3.45520311    0.09045312       1
Co     0.02732657   -0.10652542   -3.49661223       2
Cr     0.02070710   -3.68409698    0.08165742       3
Co     0.06036910   -0.13454813    3.67036223       4
Cr    -3.53920655   -0.16629281    0.07410927       5
Co     3.63361703   -0.10463069    0.08297798       6
Co    -1.64970895    1.59988036    0.06277818       7
Cr     1.75279058    1.57703079    0.10439341       8
Co    -1.69879447   -0.11465551   -1.68845656       9
Ni     1.77210227   -0.11305762   -1.65321121      10
Cr     0.05635850    1.60478698    1.80333756      11
Co     0.04217427   -1.87488693   -1.68393339      12
Ni     0.06602693   -1.86102751    1.84009883      13
Ni    -1.70390354   -0.12178861    1.83970718      14
Ni     1.81852783   -0.11603845    1.85327708      15
Ni    -1.69398866   -1.83690201    0.08054650      16
Ni     1.84512088   -1.88629394    0.08973154      17
Cr     0.00749605    1.58204993   -1.58194115      18
