          18
Lattice="  24.8920   0.0000   0.0000   0.0000  24.8920   0.0000   0.0000   0.0000  24.8920 " ConfE="      -5933.0453" DelE="          0.0000"
Ni    -0.01192436    3.50616710   -0.03693965       1
Ni     3.58477620   -0.02339469   -0.01768969       2
Co     0.02973188    0.03276758   -3.54224723       3
Co    -3.54672751   -0.02546103   -0.03042536       4
Co     0.03900163   -0.00988591    3.54939138       5
Cr    -0.01850856   -3.54642590   -0.05730346       6
Co    -1.77029322    1.75438224   -0.01293416       7
Ni     0.03149887   -1.80076192    1.77765132       8
Co    -1.71538857    0.05091638   -1.78402411       9
Co     1.76163001    1.72147887   -0.05355401      10
Cr     1.73043615   -0.00226300   -1.78155323      11
Cr     0.01726050    1.73138432    1.78698865      12
Co    -1.77390884   -0.01999169    1.76213595      13
Cr    -1.81870790   -1.77166846    0.00445268      14
Cr    -0.05556790   -1.77355536   -1.80265847      15
Cr     1.80363014    0.03684902    1.78184940      16
Cr     1.79693808   -1.76212112   -0.01610953      17
Ni     0.00000000    0.00000000    0.00000000      18
          18
Lattice="  24.8920   0.0000   0.0000   0.0000  24.8920   0.0000   0.0000   0.0000  24.8920 " ConfE="      -5932.2634" DelE="          0.7819"
Ni    -0.00831829    3.44416691   -0.05595451       1
Ni     3.68216384   -0.04273499   -0.00587578       2
Co     0.00299221    0.02715847   -3.50793287       3
Co    -3.63649155   -0.05247753   -0.00349335       4
Co     0.04008726   -0.01069985    3.55461203       5
Cr    -0.02101640   -3.53644410   -0.07369871       6
Co    -1.95708130    1.74953724    0.05744956       7
Ni     0.03888211   -1.77212395    1.74885572       8
Co    -1.97443606   -0.01901055   -1.82648135       9
Co     1.95102693    1.75954448    0.01843115      10
Cr     1.92052213   -0.06090732   -1.77851331      11
Cr    -0.00951525    1.63343649    1.66656866      12
Co    -1.72734816   -0.02876690    1.69299066      13
Cr    -1.77456225   -1.70308405   -0.00181789      14
Cr    -0.06172915   -1.64167385   -1.71935540      15
Cr     1.78016589    0.06162818    1.70220116      16
Cr     1.73883734   -1.68587213   -0.01632924      17
Ni    -0.01657653    0.98920062   -1.03857959      18
          18
Lattice="  24.8920   0.0000   0.0000   0.0000  24.8920   0.0000   0.0000   0.0000  24.8920 " ConfE="      -5932.8321" DelE="          0.2133"
Ni    -0.00661097    3.55049459   -0.01847267       1
Ni     3.61218513   -0.03039978   -0.01137921       2
Co     0.01608884   -0.02927598   -3.60098593       3
Co    -3.57219170   -0.03603937   -0.02607951       4
Co     0.03575300   -0.01223670    3.57161683       5
Cr    -0.01639270   -3.57745769   -0.05373253       6
Co    -1.75022777    1.71278798    0.00718944       7
Ni     0.03251818   -1.77263260    1.75405424       8
Co    -1.71335030   -0.02118908   -1.73926817       9
Co     1.74800306    1.68094159   -0.02408887      10
Cr     1.74626807   -0.04434578   -1.72779205      11
Cr    -0.02219719    1.66227548    1.71160742      12
Co    -1.72318633   -0.02756882    1.71566657      13
Cr    -1.75078265   -1.75499558    0.00541947      14
Cr    -0.04915913   -1.71983551   -1.75160777      15
Cr     1.75861654    0.05547451    1.72746538      16
Cr     1.72666924   -1.72642929   -0.00784114      17
Ni     0.00967511    1.71970159   -1.78786763      18
