          18
Lattice="  24.8920   0.0000   0.0000   0.0000  24.8920   0.0000   0.0000   0.0000  24.8920 " ConfE="      -5926.5722" DelE="          0.0000"
Ni     0.02817879   -0.04768007   -3.43690603       1
Ni     3.61702337   -0.03509345    0.03904527       2
Ni     0.01874073   -3.62455160    0.06332696       3
Co     0.03313159    3.44954374    0.03826658       4
Co    -3.51549496   -0.04570135    0.03173198       5
Cr     0.06668750   -0.09977027    3.66333718       6
Ni     1.82903911   -0.08338708   -1.69525290       7
Cr    -1.71987702    0.05191543   -1.70645369       8
Cr    -1.75337072    1.76413028    0.05720852       9
Ni     0.05951479    1.68755462    1.87759399      10
Ni     0.02968783   -1.86590573   -1.70396556      11
Cr     1.77949677    1.72661255   -0.00647930      12
Ni     1.81888104   -1.82825670    0.06835039      13
Cr    -1.82865716   -0.04836507    1.84404561      14
Co    -1.75608769   -1.77691032    0.04703286      15
Cr     1.84688251   -0.03048051    1.82766204      16
Cr    -0.02906762   -1.81841805    1.78564132      17
Cr     0.00000000    0.00000000    0.00000000      18
          18
Lattice="  24.8920   0.0000   0.0000   0.0000  24.8920   0.0000   0.0000   0.0000  24.8920 " ConfE="      -5926.1103" DelE="          0.4620"
Ni     0.00705432   -0.06219219   -3.37226485       1
Ni     3.66884670   -0.05030948    0.03966062       2
Ni     0.01423712   -3.63474256    0.06174829       3
Co    -0.01078824    3.42137469    0.10382573       4
Co    -3.57985573   -0.04859588    0.04563888       5
Cr     0.07735063   -0.10852806    3.63907374       6
Ni     1.93105531   -0.16374479   -1.68664534       7
Cr    -1.86726712    0.00061244   -1.75504864       8
Cr    -1.98873571    1.77547694    0.13941735       9
Ni     0.04658680    1.65899181    1.82188392      10
Ni     0.02066584   -1.80341931   -1.64444590      11
Cr     1.95654898    1.76027333    0.03681566      12
Ni     1.82755295   -1.82833146    0.06919296      13
Cr    -1.76702621   -0.04142569    1.77908216      14
Co    -1.72292591   -1.67167529    0.05770170      15
Cr     1.78820859   -0.02561784    1.72944586      16
Cr    -0.02117742   -1.72968232    1.68478619      17
Cr     0.00349700    0.73701539   -0.60920532      18
          18
Lattice="  24.8920   0.0000   0.0000   0.0000  24.8920   0.0000   0.0000   0.0000  24.8920 " ConfE="      -5926.5749" DelE="         -0.0026"
Ni     0.01503514   -0.07851014   -3.44984457       1
Ni     3.64634602   -0.04970977    0.04690184       2
Ni     0.02847121   -3.64893927    0.07169288       3
Co     0.03535069    3.52857964    0.06124778       4
Co    -3.56630546   -0.05309768    0.04783197       5
Cr     0.06775234   -0.10237594    3.63967772       6
Ni     1.82025414   -0.08731668   -1.65629816       7
Cr    -1.68127358   -0.05013873   -1.50890592       8
Cr    -1.79829849    1.77027190    0.09320933       9
Ni     0.05294123    1.65050756    1.79548989      10
Ni     0.03946411   -1.83927990   -1.65884519      11
Cr     1.82634912    1.71844247    0.05659579      12
Ni     1.82250807   -1.83128458    0.08076972      13
Cr    -1.78598581   -0.06823705    1.75418096      14
Co    -1.72684326   -1.76494495    0.08475875      15
Cr     1.80733357   -0.05096206    1.79194845      16
Cr    -0.00554013   -1.78091427    1.75892595      17
Cr     0.01817523    1.64299381   -1.59344477      18
