          18
Lattice="  24.8920   0.0000   0.0000   0.0000  24.8920   0.0000   0.0000   0.0000  24.8920 " ConfE="      -5936.9595" DelE="          0.0000"
Ni    -3.51267420   -0.00302666    0.02588157       1
Ni    -0.00947636   -3.59585346    0.03101452       2
Co    -0.00118164    3.47080936    0.01474260       3
Co    -0.00018298   -0.03463840    3.61554070       4
Cr    -0.02836923   -0.01563311   -3.48594563       5
Co     3.57956434   -0.05792652    0.03938402       6
Ni    -1.75862598   -0.01377724    1.78139691       7
Ni    -0.01447124    1.72701316    1.78815472       8
Co    -1.72634069    0.00454662   -1.74565971       9
Ni     1.82337358    1.72622696    0.05030298      10
Cr    -0.03991541    1.58545948   -1.66666002      11
Ni    -1.75467658   -1.82112575    0.03711092      12
Co     1.79102440   -0.02965382    1.82042234      13
Co     1.79790632   -0.07235652   -1.72016520      14
Cr     0.02712297   -1.77971278    1.79833193      15
Co     0.05676033   -1.79306932   -1.70755700      16
Cr     1.77699924   -1.79126533    0.06774675      17
Co     0.00000000    0.00000000    0.00000000      18
          18
Lattice="  24.8920   0.0000   0.0000   0.0000  24.8920   0.0000   0.0000   0.0000  24.8920 " ConfE="      -5936.0695" DelE="          0.8900"
Ni    -3.47371997    0.00245367    0.02762542       1
Ni    -0.01758162   -3.60742421    0.03316109       2
Co    -0.00871553    3.43215334    0.02997781       3
Co     0.01110842   -0.04887422    3.68625690       4
Cr    -0.04235308   -0.04651667   -3.55873347       5
Co     3.57193148   -0.04757350    0.03043905       6
Ni    -1.76062029   -0.04379301    1.90097677       7
Ni     0.04724352    1.74470324    1.95777056       8
Co    -1.76408741   -0.09695329   -1.91455673       9
Ni     1.75362523    1.69900054    0.06431059      10
Cr     0.11669709    1.65160810   -1.86781037      11
Ni    -1.71191794   -1.75721017    0.04698427      12
Co     1.75726525   -0.04763630    1.81169326      13
Co     1.73984384   -0.05592654   -1.70782141      14
Cr     0.03252699   -1.74297815    1.78734340      15
Co     0.05556033   -1.76117117   -1.68274901      16
Cr     1.69814515   -1.72684347    0.05834829      17
Co    -0.78780761    0.86929773   -0.06746878      18
          18
Lattice="  24.8920   0.0000   0.0000   0.0000  24.8920   0.0000   0.0000   0.0000  24.8920 " ConfE="      -5936.9572" DelE="          0.0022"
Ni    -3.53991534   -0.03282734    0.02807919       1
Ni    -0.00796318   -3.61045377    0.03214414       2
Co     0.01974358    3.51798030    0.01984192       3
Co     0.01051292   -0.03850786    3.64195059       4
Cr    -0.01481598   -0.01428794   -3.55119334       5
Co     3.58290680   -0.05097940    0.02935992       6
Ni    -1.72292682   -0.04275386    1.79412837       7
Ni     0.01282319    1.70736558    1.80457642       8
Co    -1.69340852   -0.02603077   -1.74912439       9
Ni     1.76310853    1.69839912    0.05052206      10
Cr    -0.03257692    1.54683357   -1.65913879      11
Ni    -1.70703958   -1.77354780    0.04815482      12
Co     1.76054658   -0.06022158    1.79371582      13
Co     1.73972929   -0.05366005   -1.69437977      14
Cr     0.05053442   -1.78002106    1.79403520      15
Co     0.07264130   -1.75857222   -1.66607864      16
Cr     1.74053810   -1.76643813    0.05993497      17
Co    -1.69841103    1.70451186   -0.00483420      18
