          18
Lattice="  24.8920   0.0000   0.0000   0.0000  24.8920   0.0000   0.0000   0.0000  24.8920 " ConfE="      -5939.3467" DelE="          0.0000"
Ni     0.02389960   -3.47765799   -0.01274167       1
Cr    -0.01030145   -0.03176450   -3.48098589       2
Cr    -0.01841321    3.60108360    0.03532095       3
Co    -0.01009293   -0.01188520    3.60431237       4
Ni     3.53959260    0.03769083    0.03241647       5
Cr    -3.56623123   -0.02599108   -0.03063549       6
Co     1.80467942   -1.76191083   -0.03956558       7
Co    -1.78196687   -1.76124503   -0.03983975       8
Ni     1.74329612    0.00479629   -1.74887639       9
Cr    -1.77633746   -0.05989502   -1.76598121      10
Ni     0.00553041   -1.74705076    1.82405172      11
Ni    -0.01617689    1.82282865   -1.74438569      12
Co    -0.00011600    1.83214579    1.77515314      13
Ni     1.76251887    0.02575601    1.80115312      14
Ni    -1.78169324    0.00223311    1.79495754      15
Cr     1.81104554    1.81931473    0.00295295      16
Ni    -1.78316781    1.78465547    0.02371231      17
Ni     0.00000000    0.00000000    0.00000000      18
          18
Lattice="  24.8920   0.0000   0.0000   0.0000  24.8920   0.0000   0.0000   0.0000  24.8920 " ConfE="      -5938.7786" DelE="          0.5680"
Ni     0.02797812   -3.44570889   -0.03161808       1
Cr     0.00887131   -0.06444818   -3.40255184       2
Cr    -0.01261132    3.61558510    0.02557793       3
Co    -0.00586902   -0.01657092    3.58678281       4
Ni     3.60194319    0.03809832    0.04919039       5
Cr    -3.60786758   -0.01587118   -0.02587454       6
Co     1.93755578   -1.80855313   -0.03094060       7
Co    -1.94505394   -1.80720825    0.01303936       8
Ni     1.93462841    0.09006395   -1.77313880       9
Cr    -1.91543430    0.00683781   -1.82209893      10
Ni     0.01369115   -1.71253737    1.74946670      11
Ni     0.00705506    1.77934964   -1.72330731      12
Co     0.01845423    1.80313912    1.71103247      13
Ni     1.75781274    0.01952871    1.73762819      14
Ni    -1.77329277    0.00178591    1.75739730      15
Cr     1.80374717    1.79711211   -0.00159934      16
Ni    -1.77114835    1.75517904    0.00669586      17
Ni    -0.00650145   -0.59339576   -0.63775337      18
          18
Lattice="  24.8920   0.0000   0.0000   0.0000  24.8920   0.0000   0.0000   0.0000  24.8920 " ConfE="      -5939.6317" DelE="         -0.2850"
Ni     0.02496458   -3.52301640    0.02676632       1
Cr    -0.00963754    0.03955474   -3.53517404       2
Cr    -0.01690375    3.62412864    0.03845107       3
Co    -0.00565425   -0.00958843    3.60635720       4
Ni     3.56377621    0.04266888    0.03970642       5
Cr    -3.60018212   -0.01568859   -0.02128736       6
Co     1.80804146   -1.74143684   -0.01181140       7
Co    -1.79639818   -1.73183715   -0.00269573       8
Ni     1.74332509    0.05638314   -1.69843504       9
Cr    -1.80288258    0.01143029   -1.75135701      10
Ni     0.00959410   -1.72298531    1.78025378      11
Ni    -0.01227754    1.79169190   -1.71040836      12
Co     0.01992433    1.82054894    1.73275346      13
Ni     1.74205379    0.03425227    1.76009917      14
Ni    -1.75679401    0.01069131    1.76948644      15
Cr     1.80202022    1.82253995    0.01643104      16
Ni    -1.76232813    1.76244201    0.02798624      17
Ni    -0.00547089   -1.71261736   -1.71561498      18
