          18
Lattice="  24.8920   0.0000   0.0000   0.0000  24.8920   0.0000   0.0000   0.0000  24.8920 " ConfE="      -5944.7030" DelE="          0.0000"
Co    -0.07958894   -3.48803238    0.03201823       1
Cr     3.27385604    0.05056395    0.02444224       2
Cr    -0.14104543    3.61475782   -0.00697347       3
Cr    -3.71502454    0.07960823   -0.01300822       4
Co    -0.16289053    0.06506582   -3.58815645       5
Cr    -0.08140956    0.05374175    3.54402452       6
Ni    -0.11321236   -1.75672469   -1.78181353       7
Co    -0.10549249   -1.71886608    1.73552546       8
Ni     1.62665132    0.00929420   -1.79831109       9
Co     1.65454975   -0.01316641    1.71811330      10
Ni    -1.90379113   -1.71113148   -0.01956052      11
Co     1.61708944    1.83628017   -0.04293507      12
Cr    -1.85918217    1.76896487   -0.02434924      13
Ni    -1.89100912    0.03411996   -1.77949649      14
Cr    -1.83275651    0.03584689    1.74243285      15
Co    -0.15303988    1.80276536   -1.76238778      16
Ni    -0.10110879    1.82612271    1.74963544      17
Cr     0.00000000    0.00000000    0.00000000      18
          18
Lattice="  24.8920   0.0000   0.0000   0.0000  24.8920   0.0000   0.0000   0.0000  24.8920 " ConfE="      -5944.3291" DelE="          0.3738"
Co    -0.08081168   -3.43994841    0.02553161       1
Cr     3.31824645    0.08071860   -0.00484851       2
Cr    -0.13099991    3.60508498    0.00237518       3
Cr    -3.68998380    0.06282843   -0.01837212       4
Co    -0.17795560    0.07197370   -3.64614065       5
Cr    -0.08861098    0.08012013    3.62387651       6
Ni    -0.14390248   -1.77830638   -1.88562709       7
Co    -0.17038150   -1.74699653    1.87896039       8
Ni     1.63315932    0.04648598   -1.90380134       9
Co     1.68722996    0.04025823    1.85850242      10
Ni    -1.85176300   -1.70522269   -0.01775001      11
Co     1.61963013    1.74186020   -0.05371685      12
Cr    -1.77294417    1.67603629   -0.04723964      13
Ni    -1.86167210    0.00509972   -1.78436734      14
Cr    -1.78106775    0.01739541    1.71414965      15
Co    -0.14919494    1.75874857   -1.72261797      16
Ni    -0.07700456    1.75520724    1.71003814      17
Cr     0.61668456   -0.72036363    0.05017431      18
          18
Lattice="  24.8920   0.0000   0.0000   0.0000  24.8920   0.0000   0.0000   0.0000  24.8920 " ConfE="      -5944.7722" DelE="         -0.0692"
Co    -0.13049772   -3.53419156    0.02683069       1
Cr     3.37203516    0.09940518    0.01820491       2
Cr    -0.14201548    3.61318711   -0.00346063       3
Cr    -3.71160439    0.08042323   -0.01819513       4
Co    -0.17116775    0.07119132   -3.61353336       5
Cr    -0.08752996    0.06952881    3.57786744       6
Ni    -0.14352307   -1.73457575   -1.78830744       7
Co    -0.14813234   -1.69008772    1.74404579       8
Ni     1.59525213    0.03090772   -1.78336693       9
Co     1.62752824    0.00070888    1.71304174      10
Ni    -1.88183949   -1.68599733   -0.02038850      11
Co     1.59802778    1.77300556   -0.05289020      12
Cr    -1.82533051    1.72440914   -0.04326391      13
Ni    -1.89800634    0.03881056   -1.78381296      14
Cr    -1.82854722    0.03486699    1.72823366      15
Co    -0.17004504    1.79683968   -1.73687856      16
Ni    -0.11143234    1.78679452    1.71468706      17
Cr     1.54317331   -1.64885809    0.01279157      18
