          18
Lattice="  24.8920   0.0000   0.0000   0.0000  24.8920   0.0000   0.0000   0.0000  24.8920 " ConfE="      -5940.1344" DelE="          0.0000"
Ni    -0.03985570    3.55919536   -0.01658538       1
Cr     3.44800350    0.01071551    0.04398588       2
Cr     0.04093876    0.04271688    3.51631313       3
Cr     0.06594193   -3.44393989   -0.02815126       4
Cr    -0.03732316   -0.00935304   -3.60138110       5
Cr    -3.56773725    0.02393965   -0.05829326       6
Ni     1.74285315    1.75948938   -0.00003372       7
Ni     0.01657598   -1.71292945    1.78632673       8
Cr    -0.03010351    1.75630590    1.76356411       9
Cr     1.73298153   -1.65711967   -0.01566951      10
Ni    -1.79903293    0.00475319   -1.81580007      11
Co     1.72511423    0.01706179   -1.84667235      12
Cr    -0.04068491    1.76136396   -1.83405330      13
Cr    -1.86034724    0.04884998    1.75194859      14
Co    -1.81251764    1.79475990   -0.02124804      15
Cr    -1.72363927   -1.72458838   -0.01222988      16
Co    -0.00755242   -1.74991056   -1.85778745      17
Co     0.00000000    0.00000000    0.00000000      18
          18
Lattice="  24.8920   0.0000   0.0000   0.0000  24.8920   0.0000   0.0000   0.0000  24.8920 " ConfE="      -5939.5444" DelE="          0.5899"
Ni    -0.05974223    3.63168903   -0.05078506       1
Cr     3.43872056    0.02584370    0.05099676       2
Cr     0.07481847    0.04675273    3.51959672       3
Cr     0.02568909   -3.54657237   -0.02598015       4
Cr    -0.02961750   -0.00344156   -3.60711174       5
Cr    -3.56201953    0.00821210   -0.03491713       6
Ni     1.76917292    1.92049936   -0.09086120       7
Ni    -0.04165033   -1.87536613    1.85538823       8
Cr    -0.07535451    1.89889978    1.73811431       9
Cr     1.66210272   -1.79366210   -0.06514652      10
Ni    -1.75981370    0.00631509   -1.77068748      11
Co     1.66706912    0.02312017   -1.74078153      12
Cr    -0.02368032    1.74509438   -1.79252873      13
Cr    -1.71413363    0.04085474    1.70123395      14
Co    -1.77111804    1.78082877   -0.02068179      15
Cr    -1.58163562   -1.68284085   -0.00331492      16
Co    -0.00678516   -1.75137873   -1.83397872      17
Co     1.00764581    0.05363723    1.06370950      18
          18
Lattice="  24.8920   0.0000   0.0000   0.0000  24.8920   0.0000   0.0000   0.0000  24.8920 " ConfE="      -5940.0966" DelE="          0.0378"
Ni    -0.04796117    3.58126073   -0.02740032       1
Cr     3.48935232    0.00962104    0.00054687       2
Cr     0.01810978    0.04089038    3.58347093       3
Cr     0.06431445   -3.48754245   -0.03172707       4
Cr    -0.03872947   -0.00575451   -3.63014634       5
Cr    -3.58021074    0.01260725   -0.05752564       6
Ni     1.70810061    1.75680389   -0.03226187       7
Ni    -0.01360274   -1.72491086    1.77197137       8
Cr    -0.05148938    1.77117896    1.74069426       9
Cr     1.66458837   -1.64601053   -0.04859163      10
Ni    -1.77214643    0.01185959   -1.79669291      11
Co     1.68312634    0.01633668   -1.80412648      12
Cr    -0.03882897    1.75139637   -1.83663225      13
Cr    -1.79813224    0.05744741    1.71731380      14
Co    -1.77570616    1.76177178   -0.02084540      15
Cr    -1.63355340   -1.67437409   -0.02573445      16
Co    -0.00720379   -1.73771292   -1.84169515      17
Co     1.68448157    0.04160957    1.75066010      18
