          18
Lattice="  24.8920   0.0000   0.0000   0.0000  24.8920   0.0000   0.0000   0.0000  24.8920 " ConfE="      -5922.5685" DelE="          0.0000"
Ni    -0.00534581   -0.02546624    3.44048677       1
Ni    -0.03496978   -3.52714249   -0.06393715       2
Cr     3.57781220   -0.14786248   -0.14517683       3
Co    -0.09295449   -0.03913544   -3.63524843       4
Co    -0.00688131    3.54375611   -0.05246742       5
Cr    -3.58627368   -0.00704104   -0.10635349       6
Ni     1.73202573   -1.74028466   -0.02855289       7
Ni    -1.84406583   -0.01886704    1.69488270       8
Cr     0.00054891    1.70462303    1.65062114       9
Ni    -0.03690207    1.73921370   -1.83546476      10
Ni    -1.81493503    1.77080188   -0.07416546      11
Ni     1.72184502   -0.03710160   -1.88425408      12
Cr     1.75202085    1.61504369   -0.02622534      13
Cr    -0.02078150   -1.76785908    1.71453880      14
Cr    -1.81247560   -0.07072340   -1.84283099      15
Co    -0.06458279   -1.78901956   -1.84779982      16
Co    -1.82275671   -1.75453807   -0.09315610      17
Co     0.00000000    0.00000000    0.00000000      18
          18
Lattice="  24.8920   0.0000   0.0000   0.0000  24.8920   0.0000   0.0000   0.0000  24.8920 " ConfE="      -5922.1382" DelE="          0.4303"
Ni    -0.00534848   -0.00841011    3.40416219       1
Ni    -0.04014320   -3.57814265   -0.08139307       2
Cr     3.53931082   -0.15408724   -0.11533324       3
Co    -0.08542622   -0.04137459   -3.63089096       4
Co    -0.00460428    3.57047582   -0.06714950       5
Cr    -3.59621928   -0.00030012   -0.10403649       6
Ni     1.75589221   -1.85137109   -0.07738412       7
Ni    -1.79490289   -0.00706047    1.66713845       8
Cr    -0.10160490    1.93449257    1.71941721       9
Ni    -0.02338397    1.72520798   -1.79933031      10
Ni    -1.79194886    1.76457479   -0.07474407      11
Ni     1.70132175   -0.04597264   -1.82364889      12
Cr     1.86264931    1.77103840   -0.10793606      13
Cr    -0.05024165   -1.88458364    1.71069376      14
Cr    -1.76364920   -0.08074058   -1.78524955      15
Co    -0.06304072   -1.79705985   -1.84380498      16
Co    -1.77592739   -1.72480126   -0.10332909      17
Co     0.59900708    0.06674263    0.65923118      18
          18
Lattice="  24.8920   0.0000   0.0000   0.0000  24.8920   0.0000   0.0000   0.0000  24.8920 " ConfE="      -5922.8578" DelE="         -0.2893"
Ni    -0.02951655   -0.01679584    3.48132041       1
Ni    -0.04878529   -3.55678587   -0.07771563       2
Cr     3.60082295   -0.17268165   -0.14082587       3
Co    -0.09360771   -0.04015304   -3.64556562       4
Co    -0.02380412    3.56904586   -0.05842333       5
Cr    -3.60875532   -0.00209219   -0.11362014       6
Ni     1.68618647   -1.75854511   -0.06729732       7
Ni    -1.78777871   -0.01591354    1.66395310       8
Cr    -0.02730547    1.72899384    1.63754569       9
Ni    -0.04906443    1.71042189   -1.81367282      10
Ni    -1.79542284    1.74519836   -0.08280997      11
Ni     1.69532621   -0.03627066   -1.83530464      12
Cr     1.69903447    1.64099968   -0.05212414      13
Cr    -0.06237237   -1.77886769    1.67738792      14
Cr    -1.81817762   -0.08551974   -1.83598227      15
Co    -0.08418877   -1.77709592   -1.84741080      16
Co    -1.79245360   -1.70913416   -0.12330222      17
Co     1.69058481    0.00442560    1.62805675      18
