          18
Lattice="  24.8920   0.0000   0.0000   0.0000  24.8920   0.0000   0.0000   0.0000  24.8920 " ConfE="      -5937.1879" DelE="          0.0000"
Ni     0.04209009   -0.03935033    3.54336196       1
Ni     0.03954344    3.47733613    0.02188363       2
Ni     0.06616522   -0.06582339   -3.60291442       3
Cr     0.06000719   -3.67018525    0.02491682       4
Co     3.59188638   -0.07255435   -0.06170983       5
Cr    -3.43166545   -0.06383559   -0.00074235       6
Ni     1.77757809   -0.03188987    1.74189428       7
Co    -1.72667459   -0.02358752    1.75076161       8
Co     1.77479133    1.70244891   -0.04635149       9
Cr    -1.65121039    1.68391439    0.06707446      10
Ni     0.04502278   -1.84946519    1.78480117      11
Cr     0.03276665    1.71308531   -1.77961071      12
Cr     0.04011978   -1.82430704   -1.80087006      13
Ni     1.77984060   -1.83015062   -0.01312635      14
Ni    -1.70023449   -1.86555922   -0.00134138      15
Cr     1.78447723   -0.06198094   -1.75259373      16
Co    -1.69971357   -0.06970825   -1.81616957      17
Co     0.00000000    0.00000000    0.00000000      18
          18
Lattice="  24.8920   0.0000   0.0000   0.0000  24.8920   0.0000   0.0000   0.0000  24.8920 " ConfE="      -5936.4794" DelE="          0.7085"
Ni     0.03643950   -0.02643159    3.49164796       1
Ni     0.03233903    3.43406595    0.01723898       2
Ni     0.07530772   -0.05136342   -3.61303817       3
Cr     0.07123038   -3.66112135    0.03493445       4
Co     3.66558297   -0.07282139   -0.07621822       5
Cr    -3.51699907   -0.09437027   -0.02353971       6
Ni     1.90665778   -0.07688325    1.74817106       7
Co    -1.91224643   -0.13683517    1.77418524       8
Co     1.92069693    1.71392683   -0.08304770       9
Cr    -1.90326410    1.74070749   -0.01846115      10
Ni     0.03985323   -1.78279287    1.74873957      11
Cr     0.02791709    1.62439126   -1.68078862      12
Cr     0.05044057   -1.68749125   -1.71788367      13
Ni     1.78902115   -1.79772894   -0.00815912      14
Ni    -1.69013860   -1.82605067   -0.00909215      15
Cr     1.78036652   -0.01628307   -1.68382381      16
Co    -1.68675004   -0.05446308   -1.77945643      17
Co    -0.06139265    0.91342793    0.84772505      18
          18
Lattice="  24.8920   0.0000   0.0000   0.0000  24.8920   0.0000   0.0000   0.0000  24.8920 " ConfE="      -5936.9708" DelE="          0.2171"
Ni     0.03930606   -0.05347135    3.56506653       1
Ni     0.04725144    3.53688118   -0.03232977       2
Ni     0.06560258   -0.05987598   -3.62335555       3
Cr     0.07045856   -3.69272129    0.02395069       4
Co     3.60815968   -0.07805587   -0.06715713       5
Cr    -3.47047777   -0.07213589   -0.00715776       6
Ni     1.77326440   -0.04919463    1.72100516       7
Co    -1.73708716   -0.05883917    1.72414665       8
Co     1.74989782    1.66346242   -0.07964707       9
Cr    -1.64925658    1.65796930    0.04698146      10
Ni     0.04436553   -1.82031885    1.76264540      11
Cr     0.04524585    1.65094423   -1.69655670      12
Cr     0.03836699   -1.79169999   -1.79758594      13
Ni     1.74608483   -1.79860582   -0.03017471      14
Ni    -1.67126122   -1.84362641   -0.00860721      15
Cr     1.77287713   -0.07148595   -1.76270034      16
Co    -1.64115042   -0.06786486   -1.76797713      17
Co    -0.01342058    1.71446176    1.68401570      18
