          18
Lattice="  24.8920   0.0000   0.0000   0.0000  24.8920   0.0000   0.0000   0.0000  24.8920 " ConfE="      -5948.6507" DelE="          0.0000"
Cr    -3.47930378    0.03718031    0.02173278       1
Ni    -0.01845529    0.01194224    3.45899778       2
Cr     3.57431489   -0.01165622   -0.04097038       3
Cr     0.06403448    0.03425248   -3.55783120       4
Ni     0.01189084    3.55957456   -0.02430990       5
Ni     0.00435765   -3.56075176   -0.02402826       6
Cr    -1.76149370    1.66438850    0.04500501       7
Cr    -1.77108699   -1.65145903    0.12269775       8
Co     0.04872969    1.77068562    1.72423345       9
Co    -0.05048585   -1.76237744    1.73133746      10
Co    -1.75389716    0.02014891   -1.82069714      11
Cr     1.87429371   -0.01015482    1.73229540      12
Co     1.77977197    0.02876772   -1.79148160      13
Cr     0.03058854    1.76385130   -1.77435121      14
Ni    -0.01135302   -1.76288483   -1.79282007      15
Co     1.80736038    1.77007781   -0.03463060      16
Ni     1.79054715   -1.78735154   -0.02007007      17
Ni     0.00000000    0.00000000    0.00000000      18
          18
Lattice="  24.8920   0.0000   0.0000   0.0000  24.8920   0.0000   0.0000   0.0000  24.8920 " ConfE="      -5948.1716" DelE="          0.4791"
Cr    -3.40246602    0.02452794    0.04568372       1
Ni    -0.03710654    0.02198086    3.40916607       2
Cr     3.57470371   -0.01641299   -0.03612294       3
Cr     0.05649919    0.03806868   -3.56188552       4
Ni     0.01246681    3.62160358   -0.02990605       5
Ni     0.01747749   -3.61245018   -0.03710102       6
Cr    -1.87427122    1.96677956   -0.05064129       7
Cr    -1.81743525   -1.89219733    0.00213653       8
Co     0.10302306    1.94526283    1.76794755       9
Co    -0.00793143   -1.87097910    1.75095724      10
Co    -1.73147526    0.02085599   -1.74628931      11
Cr     1.77828427   -0.00894671    1.66460848      12
Co     1.69457219    0.03816224   -1.73569607      13
Cr    -0.02003761    1.69642299   -1.65039019      14
Ni    -0.02187757   -1.77183800   -1.78115010      15
Co     1.76411309    1.74923585   -0.02320821      16
Ni     1.76177777   -1.78863674   -0.02403657      17
Ni    -0.78583472    0.08557501    0.67321459      18
          18
Lattice="  24.8920   0.0000   0.0000   0.0000  24.8920   0.0000   0.0000   0.0000  24.8920 " ConfE="      -5948.7825" DelE="         -0.1318"
Cr    -3.53123500    0.02983505   -0.03200389       1
Ni     0.02617865    0.01170147    3.52755709       2
Cr     3.58455764   -0.01048194   -0.04626607       3
Cr     0.07643508    0.03564818   -3.60459974       4
Ni     0.01728747    3.56889843   -0.03313917       5
Ni     0.01371077   -3.57034157   -0.03551951       6
Cr    -1.69352833    1.63870106   -0.05223854       7
Cr    -1.70837611   -1.66373844   -0.01687741       8
Co     0.07759876    1.73354334    1.69152180       9
Co     0.00051312   -1.74860275    1.69247362      10
Co    -1.71316124    0.02417730   -1.76712128      11
Cr     1.83050715   -0.00256128    1.69961904      12
Co     1.73853640    0.04181683   -1.77727665      13
Cr     0.05581546    1.71868567   -1.75501763      14
Ni     0.00526864   -1.74085220   -1.79111324      15
Co     1.75980289    1.72817444   -0.04957462      16
Ni     1.76884443   -1.74767994   -0.03023699      17
Ni    -1.71294404    0.00026023    1.73201749      18
