          18
Lattice="  24.8920   0.0000   0.0000   0.0000  24.8920   0.0000   0.0000   0.0000  24.8920 " ConfE="      -5926.3343" DelE="          0.0000"
Cr     0.02524585    0.12763691    3.44830472       1
Cr     0.03462549    3.46815163   -0.02786386       2
Cr     0.00608563   -0.02392430   -3.56901624       3
Co     0.03397763   -3.61035951   -0.03900182       4
Co    -3.54990160    0.00390682   -0.05028060       5
Co     3.59547051   -0.04391358   -0.02245483       6
Cr    -1.78448948    0.02661681    1.72394747       7
Cr     1.80491250    0.02698561    1.73536744       8
Cr    -1.69491447    1.78238612   -0.02391475       9
Co     1.75606168    1.72731951   -0.00192419      10
Cr     0.01105817   -1.86761361    1.72302102      11
Co    -0.00833187    1.73229076   -1.85929622      12
Cr     0.00383290   -1.81077620   -1.79472991      13
Cr    -1.79494285   -1.79459768   -0.02384119      14
Cr     1.81284659   -1.81243279   -0.01122838      15
Co    -1.79555602   -0.03064298   -1.81666955      16
Cr     1.79160838   -0.01894213   -1.78016862      17
Ni     0.00000000    0.00000000    0.00000000      18
          18
Lattice="  24.8920   0.0000   0.0000   0.0000  24.8920   0.0000   0.0000   0.0000  24.8920 " ConfE="      -5925.7193" DelE="          0.6149"
Cr     0.04635306    0.05291359    3.52366814       1
Cr     0.02843632    3.43281572    0.00627258       2
Cr     0.01538633   -0.00442433   -3.59274629       3
Co     0.02944155   -3.61282800   -0.03266633       4
Co    -3.59527059   -0.01641113   -0.06413885       5
Co     3.64846377   -0.07356943   -0.04877703       6
Cr    -1.96680497   -0.06284500    1.77902068       7
Cr     2.02359605   -0.03063187    1.74732669       8
Cr    -1.83130873    1.73457774   -0.15615374       9
Co     1.92868151    1.74447014   -0.08067405      10
Cr     0.00112197   -1.76318174    1.74847099      11
Co     0.01288873    1.71053541   -1.80065088      12
Cr     0.01391578   -1.75448022   -1.78354863      13
Cr    -1.66747566   -1.65963508   -0.01797500      14
Cr     1.68829047   -1.71566781    0.00811959      15
Co    -1.76292888   -0.03105563   -1.79323627      16
Cr     1.72551332    0.01191163   -1.71101324      17
Ni     0.01013703    0.94666017    1.08185765      18
          18
Lattice="  24.8920   0.0000   0.0000   0.0000  24.8920   0.0000   0.0000   0.0000  24.8920 " ConfE="      -5926.3472" DelE="         -0.0129"
Cr     0.02066454   -0.07491769    3.53925635       1
Cr     0.03539056    3.55023394   -0.08046000       2
Cr     0.02115390   -0.03169596   -3.55804339       3
Co     0.02851293   -3.66283550   -0.05287718       4
Co    -3.57865145    0.00530465   -0.06761709       5
Co     3.63391673   -0.04913194   -0.02786648       6
Cr    -1.68425947   -0.01661003    1.59249250       7
Cr     1.72291261   -0.04938896    1.59618902       8
Cr    -1.68753499    1.75256406   -0.10290164       9
Co     1.75762993    1.71289156   -0.02712052      10
Cr     0.00459748   -1.83083475    1.52876902      11
Co    -0.00760933    1.71357360   -1.79900160      12
Cr     0.00207839   -1.79834742   -1.69768787      13
Cr    -1.82315173   -1.79541233   -0.07237024      14
Cr     1.85822421   -1.86167174   -0.04634841      15
Co    -1.75409393   -0.04274132   -1.77363639      16
Cr     1.67292028   -0.01943061   -1.61028958      17
Ni     0.02099546    1.76039136    1.75309701      18
