          18
Lattice="  24.8920   0.0000   0.0000   0.0000  24.8920   0.0000   0.0000   0.0000  24.8920 " ConfE="      -5927.8472" DelE="          0.0000"
Ni    -3.47752423   -0.03416505    0.01517500       1
Ni     0.00947754    0.04208901    3.49265518       2
Ni     3.61751751    0.02113189   -0.02508029       3
Cr    -0.03451967   -0.01272120   -3.56505507       4
Ni     0.05971053   -3.53933438   -0.02175380       5
Ni     0.04269423    3.56905466   -0.00871735       6
Co    -1.72001525   -1.79386144   -0.00161488       7
Cr    -1.76389140    1.74046204    0.03764658       8
Co     0.02131440   -1.75780519    1.76377868       9
Co     0.00844233    1.76558828    1.71702237      10
Co    -1.74527732    0.01423317   -1.83034606      11
Co     1.83011062    0.04339951    1.73117621      12
Ni     1.80485598    0.01489243   -1.78949675      13
Co     0.02939661   -1.77130957   -1.83287473      14
Ni     0.03735572    1.78412698   -1.76444156      15
Co     1.82917608   -1.74262856   -0.02915386      16
Cr     1.83462680    1.77966509    0.03483849      17
Ni     0.00000000    0.00000000    0.00000000      18
          18
Lattice="  24.8920   0.0000   0.0000   0.0000  24.8920   0.0000   0.0000   0.0000  24.8920 " ConfE="      -5927.1553" DelE="          0.6919"
Ni    -3.46978548   -0.03797668    0.01196399       1
Ni    -0.01359686    0.04110929    3.44520020       2
Ni     3.61660279    0.02342178   -0.00899059       3
Cr    -0.04387891   -0.02864463   -3.54479628       4
Ni     0.08207549   -3.60914555   -0.03144581       5
Ni     0.06369907    3.63906508   -0.01366993       6
Co    -1.75274356   -1.98964945   -0.05671994       7
Cr    -1.81057706    1.95430166   -0.07032647       8
Co     0.05875789   -1.89970253    1.78268846       9
Co     0.08741864    1.91786281    1.75484585      10
Co    -1.71579221   -0.00004877   -1.74742908      11
Co     1.74153844    0.04750786    1.67115108      12
Ni     1.77367429    0.01971041   -1.73260356      13
Co     0.02345487   -1.76112056   -1.78651000      14
Ni     0.04603592    1.76432331   -1.69655392      15
Co     1.78121761   -1.72512978   -0.01307430      16
Cr     1.77615156    1.75055050    0.09580409      17
Ni    -1.03279812    0.03263789    0.90530163      18
          18
Lattice="  24.8920   0.0000   0.0000   0.0000  24.8920   0.0000   0.0000   0.0000  24.8920 " ConfE="      -5927.7337" DelE="          0.1135"
Ni    -3.53916211   -0.03563140   -0.03536915       1
Ni     0.02830113    0.05076048    3.51665009       2
Ni     3.63828203    0.02031413   -0.01821851       3
Cr    -0.02974984   -0.02201157   -3.56747364       4
Ni     0.06379453   -3.55628621   -0.02515872       5
Ni     0.04948716    3.59624565   -0.01272368       6
Co    -1.68920068   -1.78514939   -0.04440957       7
Cr    -1.76874993    1.77150897   -0.04952080       8
Co     0.05330902   -1.75425660    1.73283957       9
Co     0.04531868    1.76091211    1.65558002      10
Co    -1.72379593    0.01557849   -1.78173158      11
Co     1.77905190    0.05618547    1.67845110      12
Ni     1.79044204    0.01970298   -1.74416180      13
Co     0.04354495   -1.74980370   -1.81713168      14
Ni     0.05514943    1.74471579   -1.70566921      15
Co     1.80558261   -1.71880825   -0.02908559      16
Cr     1.82160313    1.75523120    0.06810827      17
Ni    -1.70898671    0.00726018    1.66671336      18
