          18
Lattice="  24.8920   0.0000   0.0000   0.0000  24.8920   0.0000   0.0000   0.0000  24.8920 " ConfE="      -5950.6497" DelE="          0.0000"
Ni    -0.08323961   -0.02611086    3.53610994       1
Ni     3.44111084    0.02140740    0.01608000       2
Co    -0.07086388    0.01167547   -3.58558707       3
Co    -3.66262333   -0.02215038   -0.03084360       4
Ni    -0.03169396   -3.55371060   -0.03128811       5
Co    -0.04724983    3.54185946   -0.02649430       6
Ni    -0.04632767   -1.75817955    1.75789003       7
Ni    -0.01457986    1.73252031    1.76065982       8
Co     1.76628377   -1.74442033    0.01525117       9
Co     1.73969164    1.78185968   -0.01079824      10
Co    -1.90147180   -0.00168115    1.73667879      11
Cr     1.68941059   -0.02325948   -1.88071016      12
Cr    -1.80702840   -0.00198654   -1.78257781      13
Ni    -1.82141020   -1.77651943   -0.00842442      14
Cr    -1.80818215    1.74043617   -0.02774962      15
Co    -0.03794438   -1.73850459   -1.80673044      16
Co    -0.04610537    1.78154616   -1.78331785      17
Ni     0.00000000    0.00000000    0.00000000      18
          18
Lattice="  24.8920   0.0000   0.0000   0.0000  24.8920   0.0000   0.0000   0.0000  24.8920 " ConfE="      -5949.9292" DelE="          0.7205"
Ni    -0.07119163   -0.02542673    3.48849707       1
Ni     3.39463641    0.01078695    0.00460957       2
Co    -0.05114350    0.01905362   -3.59590096       3
Co    -3.64656214   -0.02349126   -0.02636903       4
Ni    -0.04029691   -3.62041382   -0.03446247       5
Co    -0.06024796    3.61179763   -0.02847232       6
Ni    -0.09175860   -1.88452909    1.78561663       7
Ni    -0.07211140    1.87243206    1.78878007       8
Co     1.82310897   -1.95472045   -0.05216942       9
Co     1.77743527    1.97853142   -0.06584598      10
Co    -1.83311763    0.00654039    1.69899131      11
Cr     1.59965864   -0.01382677   -1.76422254      12
Cr    -1.61197562    0.01763926   -1.66141104      13
Ni    -1.78748869   -1.78330204    0.00785228      14
Cr    -1.74883971    1.72027934   -0.00010043      15
Co    -0.00619528   -1.70495568   -1.74444975      16
Co    -0.02543065    1.77626625   -1.72997776      17
Ni     0.95856111    0.01026124    0.85769876      18
          18
Lattice="  24.8920   0.0000   0.0000   0.0000  24.8920   0.0000   0.0000   0.0000  24.8920 " ConfE="      -5950.6354" DelE="          0.0143"
Ni    -0.09979629   -0.02787793    3.55752654       1
Ni     3.47452647    0.01455068   -0.01676949       2
Co    -0.06532705    0.01810842   -3.61969236       3
Co    -3.67409053   -0.02590854   -0.03698938       4
Ni    -0.04031007   -3.57078032   -0.03659692       5
Co    -0.05080131    3.57127776   -0.02790704       6
Ni    -0.07270076   -1.75990018    1.73641712       7
Ni    -0.05081418    1.73956379    1.72798859       8
Co     1.71084128   -1.72357977   -0.05064822       9
Co     1.71135369    1.77037899   -0.03327638      10
Co    -1.86440216    0.00767349    1.70290210      11
Cr     1.61416950   -0.02835985   -1.79646831      12
Cr    -1.69949187    0.00894141   -1.72079302      13
Ni    -1.80731195   -1.76107273   -0.01105643      14
Cr    -1.78619121    1.70560437   -0.02270664      15
Co    -0.04729700   -1.68903474   -1.78182614      16
Co    -0.05341135    1.74250921   -1.73983699      17
Ni     1.68829947   -0.00942818    1.72245287      18
