          18
Lattice="  24.8920   0.0000   0.0000   0.0000  24.8920   0.0000   0.0000   0.0000  24.8920 " ConfE="      -5945.0460" DelE="          0.0000"
Ni     0.04664030   -3.43470356   -0.01360801       1
Co     0.05096176    0.02623696    3.50299375       2
Co     0.02280099    3.69686859   -0.03605799       3
Co     0.07932951    0.09817371   -3.61600673       4
Cr    -3.46980744    0.10705979   -0.10865960       5
Co     3.61798048    0.10526011   -0.03910845       6
Cr    -1.70707858   -1.64541476   -0.07566769       7
Cr     1.82420390   -1.63525284   -0.02687103       8
Cr    -1.67581028    0.08352882    1.65738851       9
Ni     1.79183594    0.04809921    1.71683843      10
Ni     0.07425739   -1.69212327   -1.85042405      11
Co     0.01680300    1.85578967    1.75220194      12
Co     0.04805734    1.81937246   -1.82907221      13
Cr    -1.67627324    0.10376227   -1.85390369      14
Cr     1.81113379    0.11490437   -1.76554854      15
Ni    -1.71322026    1.87931371   -0.06429437      16
Ni     1.79510221    1.87670003   -0.02915431      17
Co     0.00000000    0.00000000    0.00000000      18
          18
Lattice="  24.8920   0.0000   0.0000   0.0000  24.8920   0.0000   0.0000   0.0000  24.8920 " ConfE="      -5944.6811" DelE="          0.3649"
Ni     0.04209941   -3.43198762   -0.00919105       1
Co     0.05993138    0.01498703    3.45047194       2
Co     0.02148598    3.69459890   -0.02295237       3
Co     0.08792559    0.08511684   -3.61049203       4
Cr    -3.52834274    0.14528962   -0.11581443       5
Co     3.66384394    0.12420484   -0.05019385       6
Cr    -1.89217312   -1.71160071   -0.18092233       7
Cr     1.95275581   -1.65769999   -0.01847972       8
Cr    -1.77486479    0.16414153    1.68896236       9
Ni     1.90281856    0.10537705    1.73414348      10
Ni     0.07086907   -1.69120180   -1.79575905      11
Co     0.00701754    1.78376917    1.72783545      12
Co     0.05260956    1.78772552   -1.78833349      13
Cr    -1.59499759    0.09986354   -1.77016842      14
Cr     1.67389259    0.10104739   -1.62292474      15
Ni    -1.70475441    1.85427923   -0.05194374      16
Ni     1.79971872    1.87409654   -0.01193891      17
Co    -0.03040623   -0.79534462    0.68421043      18
          18
Lattice="  24.8920   0.0000   0.0000   0.0000  24.8920   0.0000   0.0000   0.0000  24.8920 " ConfE="      -5945.1765" DelE="         -0.1305"
Ni     0.05065689   -3.48445990   -0.04505893       1
Co     0.03768505    0.06103720    3.54594354       2
Co     0.02383731    3.70893173   -0.03342158       3
Co     0.08680785    0.09597890   -3.63617777       4
Cr    -3.50560976    0.11394522   -0.12700517       5
Co     3.63252417    0.11798997   -0.04441412       6
Cr    -1.64996803   -1.56449284   -0.08962042       7
Cr     1.79041335   -1.59411725   -0.03847231       8
Cr    -1.63869352    0.13015323    1.60875175       9
Ni     1.78990905    0.09178353    1.68882545      10
Ni     0.07519366   -1.66288473   -1.80979632      11
Co     0.00054519    1.81895445    1.74150438      12
Co     0.05343438    1.79477380   -1.81838499      13
Cr    -1.61365192    0.13656939   -1.81992714      14
Cr     1.74809144    0.13844895   -1.72355027      15
Ni    -1.69506714    1.86437262   -0.07090971      16
Ni     1.78383246    1.87618115   -0.03081517      17
Co     0.01017871   -1.62817555    1.65349011      18
