          18
Lattice="  24.8920   0.0000   0.0000   0.0000  24.8920   0.0000   0.0000   0.0000  24.8920 " ConfE="      -5948.1780" DelE="          0.0000"
Ni     0.03879776   -3.58907214    0.01375953       1
Co    -3.50307549   -0.03059832    0.01818544       2
Cr    -0.02891339    3.48876530   -0.08296182       3
Cr     3.60075535   -0.08885921    0.00638229       4
Cr     0.01500074   -0.00668238   -3.51400514       5
Co     0.05165633   -0.00988284    3.55949310       6
Ni    -1.73265205    0.03319943   -1.72080456       7
Ni    -0.00667541    1.75399596    1.74477779       8
Ni     1.82162622    1.73499982   -0.01503314       9
Cr    -1.74018739   -0.04394929    1.75589861      10
Co     0.02576376    1.78142764   -1.76684339      11
Ni     1.79539172   -0.04129524    1.76143956      12
Co    -1.81086487   -1.82842130   -0.00567495      13
Co     1.83888121   -1.76668103   -0.03616644      14
Co    -0.02396358   -1.77931871    1.76186220      15
Co     0.01672116   -1.79917315   -1.77019600      16
Cr     1.76704737   -0.04423207   -1.77330351      17
Ni     0.00000000    0.00000000    0.00000000      18
          18
Lattice="  24.8920   0.0000   0.0000   0.0000  24.8920   0.0000   0.0000   0.0000  24.8920 " ConfE="      -5947.4873" DelE="          0.6906"
Ni     0.03380548   -3.58765672    0.00970703       1
Co    -3.50063926   -0.03802219   -0.00697697       2
Cr    -0.01544057    3.49905549   -0.05994256       3
Cr     3.60576747   -0.07883817    0.01937501       4
Cr     0.02686531   -0.06818749   -3.63865327       5
Co     0.06919673   -0.02424833    3.61533683       6
Ni    -1.74649963   -0.07202852   -1.88458911       7
Ni     0.06949095    1.78863079    1.90539127       8
Ni     1.72510606    1.69488638   -0.02289040       9
Cr    -1.71799463   -0.11805568    1.84558152      10
Co     0.12022570    1.72311011   -1.96921636      11
Ni     1.75353941   -0.03904915    1.74706874      12
Co    -1.79479615   -1.77693401   -0.01051854      13
Co     1.80727635   -1.71667500   -0.05057338      14
Co    -0.04723972   -1.71733997    1.72117231      15
Co     0.04185738   -1.74622798   -1.74227385      16
Cr     1.69897789   -0.08702926   -1.72966933      17
Ni    -1.05414779    1.11554722   -0.01114400      18
          18
Lattice="  24.8920   0.0000   0.0000   0.0000  24.8920   0.0000   0.0000   0.0000  24.8920 " ConfE="      -5948.0599" DelE="          0.1181"
Ni     0.03973135   -3.59977872    0.00949700       1
Co    -3.54576393   -0.04574107    0.00384335       2
Cr     0.03583703    3.56604375   -0.05626096       3
Cr     3.62502495   -0.08435095    0.01530077       4
Cr     0.02200363   -0.03438646   -3.57144319       5
Co     0.06183934   -0.01617894    3.58648978       6
Ni    -1.68225804   -0.01272999   -1.71340207       7
Ni     0.02546766    1.73508121    1.75675450       8
Ni     1.77402995    1.70355117   -0.02578041       9
Cr    -1.68703753   -0.08064463    1.73631941      10
Co     0.06623728    1.72717490   -1.80153874      11
Ni     1.76390154   -0.04580900    1.72703931      12
Co    -1.80134466   -1.78645220    0.00465135      13
Co     1.82176551   -1.72389180   -0.06244674      14
Co    -0.04312053   -1.72119528    1.70351651      15
Co     0.04245442   -1.76445372   -1.74403882      16
Cr     1.72628269   -0.07685460   -1.73798662      17
Ni    -1.70675293    1.73964220    0.00690393      18
