          18
Lattice="  24.8920   0.0000   0.0000   0.0000  24.8920   0.0000   0.0000   0.0000  24.8920 " ConfE="      -5937.0473" DelE="          0.0000"
Ni    -0.01601916    0.00167885    3.52365406       1
Ni    -0.01197898    3.47125244    0.06703665       2
Ni    -3.54868906   -0.03461494    0.00791292       3
Ni     3.52194891   -0.05182334    0.00517538       4
Co     0.01904134   -3.62389534   -0.01666656       5
Cr     0.00864966   -0.14251388   -3.53935301       6
Ni    -1.77295964    0.01742281    1.77252534       7
Ni    -0.02107700   -1.81940677    1.75256642       8
Co    -1.74238654    1.75044116   -0.00617145       9
Co     1.78011947    0.02321108    1.78375892      10
Cr     1.71238698    1.76096389    0.02758199      11
Ni    -1.78347425   -1.80786471    0.00455379      12
Ni     1.75999446   -1.81917215    0.01640948      13
Cr    -0.03891953    1.81850456   -1.81340878      14
Cr     0.04080811   -1.93051986   -1.74751425      15
Co    -1.71191074   -0.05987030   -1.82188401      16
Co     1.72178508   -0.04102160   -1.77899468      17
Ni     0.00000000    0.00000000    0.00000000      18
          18
Lattice="  24.8920   0.0000   0.0000   0.0000  24.8920   0.0000   0.0000   0.0000  24.8920 " ConfE="      -5936.3562" DelE="          0.6911"
Ni    -0.01955977    0.00480557    3.50892839       1
Ni    -0.01190702    3.41039102    0.08069604       2
Ni    -3.59506988   -0.05640335   -0.02279522       3
Ni     3.54932397   -0.06360781   -0.01383320       4
Co     0.01788521   -3.64660573    0.00398398       5
Cr     0.05621940   -0.15068630   -3.63570953       6
Ni    -1.87104203   -0.01401098    1.76880686       7
Ni    -0.01891792   -1.73369621    1.69272722       8
Co    -1.93390184    1.78418348   -0.05306427       9
Co     1.92939912   -0.03521292    1.83201422      10
Cr     1.98687476    1.85022897   -0.05044704      11
Ni    -1.78610149   -1.80249613   -0.00639050      12
Ni     1.75368547   -1.80280456    0.01081015      13
Cr    -0.02974867    1.90736106   -1.81001143      14
Cr     0.07220146   -2.02252219   -1.69307306      15
Co    -1.21257970   -0.05959720   -1.63681791      16
Co     1.58852849   -0.01303740   -1.69560269      17
Ni     0.07584403    0.81801500    0.62388831      18
          18
Lattice="  24.8920   0.0000   0.0000   0.0000  24.8920   0.0000   0.0000   0.0000  24.8920 " ConfE="      -5936.9690" DelE="          0.0783"
Ni    -0.02507093   -0.03471859    3.56170382       1
Ni    -0.02775857    3.54299892    0.04213132       2
Ni    -3.54937923   -0.04631367   -0.01262116       3
Ni     3.51893584   -0.06095935   -0.00925455       4
Co     0.01158760   -3.66227435    0.00487419       5
Cr     0.06229258   -0.14824494   -3.65816414       6
Ni    -1.79681445   -0.03368869    1.74752773       7
Ni    -0.02809090   -1.78155154    1.71486899       8
Co    -1.73430334    1.72573005   -0.05232049       9
Co     1.78117815   -0.01972657    1.76793657      10
Cr     1.65672982    1.68429327   -0.04813837      11
Ni    -1.75984982   -1.80479328   -0.01463230      12
Ni     1.71783223   -1.79197072    0.00092440      13
Cr     0.00489332    1.94826574   -1.79411810      14
Cr     0.08109953   -2.08031010   -1.72523519      15
Co    -1.02162047   -0.06290715   -1.57322241      16
Co     1.62451476   -0.03637992   -1.73603628      17
Ni    -0.02630464    1.68361178    1.70691906      18
