          18
Lattice="  24.8920   0.0000   0.0000   0.0000  24.8920   0.0000   0.0000   0.0000  24.8920 " ConfE="      -5946.6341" DelE="          0.0000"
Co     0.06252389    0.06799578    3.41583897       1
Cr    -0.05693979    3.49596369   -0.01477749       2
Ni    -0.01564989    0.00909818   -3.59934010       3
Cr     0.03366827   -3.54662041   -0.09496101       4
Cr    -3.55852339   -0.00691056   -0.02876706       5
Co     3.56163750   -0.00029602   -0.05674582       6
Ni    -1.76807894   -0.00091451    1.74343462       7
Cr     1.74886332   -0.00166286    1.76889345       8
Cr    -1.75058419    1.78002635    0.03924031       9
Ni     1.71727440    1.74215129    0.00628943      10
Ni    -0.01467792   -1.83444214    1.75376209      11
Ni    -0.03822377    1.78212058   -1.83071432      12
Ni    -0.01297326   -1.77277212   -1.80301216      13
Cr    -1.80189597   -1.77596814   -0.04815926      14
Cr     1.81961765   -1.73227670    0.00571037      15
Co    -1.78962312    0.00090001   -1.76128577      16
Co     1.75415119    0.00425898   -1.79557849      17
Cr     0.00000000    0.00000000    0.00000000      18
          18
Lattice="  24.8920   0.0000   0.0000   0.0000  24.8920   0.0000   0.0000   0.0000  24.8920 " ConfE="      -5945.9319" DelE="          0.7022"
Co     0.01454648    0.02188941    3.45015187       1
Cr    -0.04080833    3.53818763   -0.03937161       2
Ni    -0.01652556    0.03205774   -3.56681270       3
Cr     0.02732871   -3.54519922   -0.08501116       4
Cr    -3.72099201   -0.04622024   -0.04648758       5
Co     3.64735307   -0.00933489   -0.08132015       6
Ni    -1.95849919   -0.07303943    1.75749579       7
Cr     1.91334378   -0.07568189    1.73807223       8
Cr    -1.91228125    1.76789776   -0.06572886       9
Ni     1.84744162    1.76769960   -0.06326476      10
Ni    -0.02883425   -1.72152841    1.68485593      11
Ni    -0.03376611    1.77432978   -1.72350422      12
Ni    -0.03332511   -1.74167442   -1.76500551      13
Cr    -1.78429843   -1.69489447   -0.06211671      14
Cr     1.72626390   -1.65208818   -0.04118054      15
Co    -1.78021588    0.01863023   -1.66189341      16
Co     1.73332277   -0.00040813   -1.72700681      17
Cr    -0.03655854    0.98108792    1.04927971      18
          18
Lattice="  24.8920   0.0000   0.0000   0.0000  24.8920   0.0000   0.0000   0.0000  24.8920 " ConfE="      -5946.6190" DelE="          0.0152"
Co     0.01344448   -0.00467164    3.48703219       1
Cr    -0.04837146    3.55220137   -0.05055421       2
Ni    -0.01280193    0.01101468   -3.59483911       3
Cr     0.03851286   -3.56364428   -0.10130705       4
Cr    -3.62027586   -0.02422804   -0.03311417       5
Co     3.60261595   -0.00555247   -0.06639322       6
Ni    -1.78288543   -0.03383589    1.70160543       7
Cr     1.75927383   -0.03307393    1.70946656       8
Cr    -1.77746315    1.71534593   -0.04659404       9
Ni     1.72353868    1.71199553   -0.02495758      10
Ni    -0.01168550   -1.77876063    1.68612069      11
Ni    -0.03028674    1.76785741   -1.78590860      12
Ni    -0.01151157   -1.75594325   -1.77453259      13
Cr    -1.79408121   -1.73717711   -0.09555259      14
Cr     1.78298305   -1.70529623   -0.02490948      15
Co    -1.77452812   -0.00301177   -1.71252990      16
Co     1.75103358   -0.01025815   -1.76886050      17
Cr    -0.04849661    1.69591786    1.68829523      18
