          18
Lattice="  24.8920   0.0000   0.0000   0.0000  24.8920   0.0000   0.0000   0.0000  24.8920 " ConfE="      -5949.5219" DelE="          0.0000"
Ni     3.46543269   -0.06285826    0.03140851       1
Ni     0.01860292   -0.01356471   -3.46679735       2
Ni    -0.02226261    3.55679855    0.04003013       3
Cr    -0.09070623   -3.57424694    0.00459722       4
Cr    -3.56844571   -0.04203944    0.10493738       5
Co    -0.02110516    0.01878216    3.58092033       6
Ni     1.71742595   -1.79631380    0.03385576       7
Co     0.02611479    1.73139919   -1.67721996       8
Cr     1.72780593    1.71464745   -0.00138451       9
Co    -0.00910980   -1.75168741   -1.70613945      10
Ni    -1.81363372   -0.02239683   -1.71708807      11
Ni    -0.01591313   -1.81619822    1.82146922      12
Co    -1.79382558    1.77608991    0.07185671      13
Cr    -0.04501140    1.75073206    1.79490968      14
Cr     1.69455729    0.00369502    1.86905970      15
Co    -1.80334297   -1.78313289    0.07314679      16
Co    -1.76398277   -0.02171958    1.84407194      17
Cr     0.00000000    0.00000000    0.00000000      18
          18
Lattice="  24.8920   0.0000   0.0000   0.0000  24.8920   0.0000   0.0000   0.0000  24.8920 " ConfE="      -5948.9210" DelE="          0.6009"
Ni     3.42731634   -0.07211494    0.03323049       1
Ni     0.02226705    0.00430764   -3.40913583       2
Ni    -0.01991148    3.60549252    0.05494861       3
Cr    -0.10779411   -3.65729053    0.03583730       4
Cr    -3.56537780   -0.05188690    0.09171059       5
Co    -0.01984993    0.01211590    3.59062479       6
Ni     1.74472578   -1.90932382    0.06938535       7
Co    -0.03717476    1.90562564   -1.73745747       8
Cr     1.81700406    1.87690235    0.09227195       9
Co    -0.03585124   -1.84790643   -1.70266285      10
Ni    -1.74419587   -0.00405002   -1.66274070      11
Ni    -0.00762753   -1.80704373    1.77786632      12
Co    -1.73698730    1.76551285    0.07597916      13
Cr    -0.04897857    1.66930996    1.69182411      14
Cr     1.67152122   -0.01594552    1.84437189      15
Co    -1.78405673   -1.78021008    0.06471401      16
Co    -1.71735311   -0.01587585    1.79457302      17
Cr     0.70036026    0.05052026   -0.72384866      18
          18
Lattice="  24.8920   0.0000   0.0000   0.0000  24.8920   0.0000   0.0000   0.0000  24.8920 " ConfE="      -5949.3155" DelE="          0.2064"
Ni     3.51095496   -0.06428500    0.06613035       1
Ni    -0.02726737   -0.00335551   -3.52730254       2
Ni    -0.03841963    3.58874618    0.05553423       3
Cr    -0.09848050   -3.58968925    0.01467015       4
Cr    -3.56372041   -0.05080567    0.10595636       5
Co    -0.02938223    0.01771565    3.62154295       6
Ni     1.69150785   -1.78491941    0.05191225       7
Co    -0.00537959    1.74606415   -1.66333624       8
Cr     1.66234748    1.71091183    0.04956015       9
Co    -0.02158253   -1.74829004   -1.70477105      10
Ni    -1.75730903   -0.00995652   -1.67100148      11
Ni    -0.02839157   -1.79501695    1.81180351      12
Co    -1.76319133    1.76477567    0.10463797      13
Cr    -0.08405729    1.70383636    1.76640218      14
Cr     1.65160949    0.01452516    1.81650022      15
Co    -1.79738363   -1.76296780    0.08106322      16
Co    -1.74542638   -0.01103248    1.84524473      17
Cr     1.64416086   -0.00709007   -1.68514932      18
