          18
Lattice="  24.8920   0.0000   0.0000   0.0000  24.8920   0.0000   0.0000   0.0000  24.8920 " ConfE="      -5932.3754" DelE="          0.0000"
Ni     3.58494777   -0.00019382   -0.02963551       1
Co    -0.01490828    3.56377429    0.01384623       2
Cr     0.01073764    0.04232576    3.46025455       3
Cr     0.02453860   -0.00303068   -3.65093110       4
Cr    -0.03822339   -3.50174244   -0.03873381       5
Cr    -3.51594118   -0.01429190    0.11452036       6
Ni     1.74113366    1.77760101   -0.00211256       7
Co     1.76276196    0.02541188    1.74368413       8
Ni     0.02172370    1.76513205   -1.82390502       9
Ni     0.01070174   -1.77841828    1.78006300      10
Cr    -1.68492600    1.74247417    0.03765167      11
Co    -1.74813959    0.04652849    1.75339550      12
Cr     1.79212793   -0.01594017   -1.80561133      13
Cr     1.77084680   -1.76476185   -0.01379784      14
Cr    -1.84556062    0.00449779   -1.72612546      15
Co    -1.75475265   -1.74761805   -0.01032022      16
Co     0.00756315   -1.74890089   -1.81051973      17
Co     0.00000000    0.00000000    0.00000000      18
          18
Lattice="  24.8920   0.0000   0.0000   0.0000  24.8920   0.0000   0.0000   0.0000  24.8920 " ConfE="      -5931.6826" DelE="          0.6929"
Ni     3.64284682   -0.00767704   -0.05145473       1
Co    -0.01051209    3.51067131    0.04365197       2
Cr    -0.01794005    0.08241295    3.41875937       3
Cr     0.04237893    0.00923639   -3.65288040       4
Cr    -0.04329019   -3.51621814   -0.01535942       5
Cr    -3.58151667   -0.03288770    0.02644515       6
Ni     1.91355444    1.81655343   -0.04820730       7
Co     1.90825113   -0.01661255    1.73075516       8
Ni     0.05228950    1.77654960   -1.75358293       9
Ni     0.00773193   -1.69296319    1.75260036      10
Cr    -1.86584722    1.78360550   -0.03530831      11
Co    -1.95357455   -0.03398742    1.80702374      12
Cr     1.71707113   -0.02109456   -1.74123012      13
Cr     1.76341563   -1.72882535    0.01341698      14
Cr    -1.60618556   -0.00343019   -1.62412311      15
Co    -1.73308823   -1.70317972   -0.00173191      16
Co     0.03421461   -1.73423411   -1.76584597      17
Co    -0.06194672    0.88619138    0.83826481      18
          18
Lattice="  24.8920   0.0000   0.0000   0.0000  24.8920   0.0000   0.0000   0.0000  24.8920 " ConfE="      -5932.6722" DelE="         -0.2968"
Ni     3.59354004   -0.00539239   -0.04996270       1
Co     0.00617313    3.62300790   -0.04277518       2
Cr    -0.00039476    0.01029019    3.52248081       3
Cr     0.04764438   -0.00153305   -3.70472408       4
Cr    -0.05835220   -3.53828862   -0.03798845       5
Cr    -3.55993063   -0.02177753    0.11903946       6
Ni     1.74645573    1.75357519   -0.03425146       7
Co     1.74545175   -0.00286526    1.68814600       8
Ni     0.04693274    1.78958177   -1.80358465       9
Ni     0.00276649   -1.73958456    1.75282706      10
Cr    -1.69048862    1.70333262    0.00602701      11
Co    -1.74692713    0.03295447    1.73009587      12
Cr     1.69556348   -0.04336840   -1.77861341      13
Cr     1.75298217   -1.75267147    0.00466582      14
Cr    -1.55661956   -0.01750421   -1.68027132      15
Co    -1.71438494   -1.68989373   -0.01639844      16
Co     0.04054121   -1.75968481   -1.79368915      17
Co    -0.01073995    1.80674422    1.73226846      18
