          18
Lattice="  24.8920   0.0000   0.0000   0.0000  24.8920   0.0000   0.0000   0.0000  24.8920 " ConfE="      -5943.5250" DelE="          0.0000"
Ni     0.06001526    0.01907926   -3.48834444       1
Ni     0.09449881   -0.02126925    3.59510739       2
Cr    -3.33986994    0.01401623   -0.02775509       3
Cr     0.08100545    3.58506559    0.06191646       4
Co     3.67008938    0.02344677    0.08229711       5
Co     0.08094054   -3.54492121   -0.00782993       6
Ni     0.06054163    1.77096797   -1.73881721       7
Ni     1.85830630    0.01959091   -1.72432851       8
Cr    -0.04128141   -1.69941925   -1.67623492       9
Ni     1.83862927    1.77300991    0.03789872      10
Ni     1.81567670   -1.74845805    0.01469172      11
Co    -1.70822427    1.77849726    0.00672983      12
Co    -1.71921866   -1.75071667   -0.05498145      13
Co     1.86077664    0.00680124    1.79627039      14
Co     0.05480505    1.75525757    1.80942265      15
Co     0.05433374   -1.74229956    1.76866312      16
Cr    -1.67295260   -0.00654281    1.81422317      17
Co     0.00000000    0.00000000    0.00000000      18
          18
Lattice="  24.8920   0.0000   0.0000   0.0000  24.8920   0.0000   0.0000   0.0000  24.8920 " ConfE="      -5943.1129" DelE="          0.4121"
Ni     0.05599055    0.02194171   -3.48387656       1
Ni     0.08927403   -0.02050809    3.60638436       2
Cr    -3.31869046    0.01240431    0.00505178       3
Cr     0.11431043    3.65368217    0.07053948       4
Co     3.65102779    0.02208298    0.07204013       5
Co     0.07622154   -3.58706784   -0.00754407       6
Ni     0.10098471    1.89057224   -1.75615742       7
Ni     1.77911731    0.01736734   -1.69982172       8
Cr    -0.03983816   -1.82710631   -1.72756025       9
Ni     1.80773370    1.77070391    0.03512159      10
Ni     1.75895670   -1.73547792   -0.00289913      11
Co    -1.72014672    1.97073562    0.09076868      12
Co    -1.79638247   -1.94457718    0.00387585      13
Co     1.82960417    0.00488203    1.77566952      14
Co     0.05185291    1.73933418    1.78707417      15
Co     0.01044075   -1.68749360    1.69607232      16
Cr    -1.63018532   -0.02491526    1.76001207      17
Co    -0.74678770   -0.01056775   -0.65890219      18
          18
Lattice="  24.8920   0.0000   0.0000   0.0000  24.8920   0.0000   0.0000   0.0000  24.8920 " ConfE="      -5944.0765" DelE="         -0.5516"
Ni     0.08555085    0.01842351   -3.52820810       1
Ni     0.09285415   -0.02073990    3.60848763       2
Cr    -3.41367456    0.01242025    0.03452011       3
Cr     0.09420172    3.61302961    0.06952810       4
Co     3.68023831    0.02336822    0.08398094       5
Co     0.08683003   -3.56419864   -0.00447627       6
Ni     0.08714330    1.77417286   -1.70717974       7
Ni     1.80887761    0.01222267   -1.69807882       8
Cr    -0.01565572   -1.72578273   -1.67543294       9
Ni     1.83344676    1.75932932    0.04839284      10
Ni     1.78476430   -1.72460971    0.01592241      11
Co    -1.66828460    1.77735478    0.05454689      12
Co    -1.67370970   -1.75013550   -0.02442964      13
Co     1.86734009    0.00956481    1.80208633      14
Co     0.06485953    1.72101007    1.78746287      15
Co     0.04875497   -1.69239295    1.73856641      16
Cr    -1.62652428   -0.02137353    1.74017340      17
Co    -1.68121996    0.02651455   -1.71154061      18
