          19
Lattice="  24.8920   0.0000   0.0000   0.0000  24.8920   0.0000   0.0000   0.0000  24.8920 " ConfE="      -5940.7513" DelE="          0.0000"
Co    -1.56625746    1.70540648   -3.26113933       1
Co    -3.37540044   -0.00581307    0.16942287       2
Cr     0.09259537   -0.02600974   -3.15982806       3
Cr     0.16524415   -0.00963750    3.78387927       4
Co     3.73428702   -0.00486649    0.22024075       5
Cr     0.17691359   -3.62176911    0.21399745       6
Cr     0.19572962    3.57444610    0.20588886       7
Ni    -1.63206730   -1.81754064    0.19575912       8
Co    -1.62492542    1.76828752    0.18582759       9
Co     0.15726069   -1.79148064   -1.52458199      10
Cr    -1.57971853    0.02932458    1.96529241      11
Co     1.90945523   -1.74462315    0.20978214      12
Cr     1.98181549   -0.02039505   -1.54388358      13
Cr     1.90940664   -0.01404493    1.98501881      14
Cr     1.93574428    1.78219553    0.22309937      15
Co     0.17017086    1.76078010    1.95206212      16
Ni     0.13534724   -1.79930439    1.96612490      17
Cr     0.12319505    1.84563643   -1.55665511      18
Cr     0.00000000    0.00000000    0.00000000      19
          19
Lattice="  24.8920   0.0000   0.0000   0.0000  24.8920   0.0000   0.0000   0.0000  24.8920 " ConfE="      -5940.3820" DelE="          0.3693"
Co    -1.53320923    1.68349055   -3.24935296       1
Co    -3.31944704   -0.01570338    0.20497216       2
Cr     0.15259444   -0.04440253   -3.25403544       3
Cr     0.17327126   -0.01197730    3.76869416       4
Co     3.71352538   -0.00040407    0.22244137       5
Cr     0.18459535   -3.69300167    0.23564843       6
Cr     0.21945625    3.65924675    0.21938307       7
Ni    -1.62531713   -1.92471972    0.23927908       8
Co    -1.64347761    1.92586591    0.27631082       9
Co     0.16314343   -1.86642581   -1.50890264      10
Cr    -1.47037224    0.02064388    1.92643035      11
Co     1.86422917   -1.73682443    0.20109332      12
Cr     1.89858603   -0.03749705   -1.48173780      13
Cr     1.76309461   -0.03248901    1.85939909      14
Cr     1.80064762    1.73313480    0.18996030      15
Co     0.16140781    1.78596819    1.95149580      16
Ni     0.12122986   -1.84945937    1.96990723      17
Cr     0.13834046    1.96903757   -1.59112526      18
Cr    -0.76303578    0.06682496   -0.64545315      19
          19
Lattice="  24.8920   0.0000   0.0000   0.0000  24.8920   0.0000   0.0000   0.0000  24.8920 " ConfE="      -5940.9469" DelE="         -0.1956"
Co    -1.55134609    1.70835239   -3.25995652       1
Co    -3.41996007   -0.01562556    0.22126553       2
Cr     0.18197334   -0.01418972   -3.28452448       3
Cr     0.16002889   -0.01155570    3.73590456       4
Co     3.74437240   -0.01001212    0.23090299       5
Cr     0.18480426   -3.67491092    0.22634573       6
Cr     0.21441728    3.63133853    0.20769233       7
Ni    -1.59973861   -1.85663447    0.23650678       8
Co    -1.58763608    1.78180818    0.22146074       9
Co     0.18680810   -1.79705290   -1.48757020      10
Cr    -1.42211958    0.03771134    1.80262081      11
Co     1.91172403   -1.78149378    0.22087232      12
Cr     1.79975659   -0.01627031   -1.37440216      13
Cr     1.76627107   -0.03794677    1.82429888      14
Cr     1.94747655    1.81500600    0.24802383      15
Co     0.18764230    1.79661116    1.95094865      16
Ni     0.14040788   -1.85991721    1.97718622      17
Cr     0.18668839    1.84583662   -1.49991226      18
Cr    -1.36975422   -0.03647390   -1.32256098      19
