          18
Lattice="  24.8920   0.0000   0.0000   0.0000  24.8920   0.0000   0.0000   0.0000  24.8920 " ConfE="      -5942.2196" DelE="          0.0000"
Ni    -0.05775637    0.08504505   -3.44206944       1
Ni     3.42896372    0.10770079    0.01677079       2
Ni    -0.07475684   -3.47890387   -0.00253488       3
Cr    -3.68477478    0.03568440    0.09258832       4
Cr    -0.08434696    0.07399586    3.59579628       5
Co    -0.07022073    3.62639531    0.08832095       6
Ni    -0.06154050    1.83606285   -1.67742334       7
Ni     1.68938085    1.88538387    0.05220837       8
Co    -0.10127611   -1.66734093   -1.74464052       9
Co     1.64904497   -1.64660140    0.02459470      10
Ni    -1.85121656    0.05884185    1.81933356      11
Cr    -0.02455750   -1.74289712    1.79435257      12
Co    -1.86113437   -1.70238355    0.05148278      13
Cr    -1.87671972    0.05431846   -1.67656643      14
Co     1.65468314    0.12538920    1.85929983      15
Cr    -0.07561195    1.89148087    1.82779750      16
Cr    -1.84716310    1.79581473    0.03715889      17
Cr     0.00000000    0.00000000    0.00000000      18
          18
Lattice="  24.8920   0.0000   0.0000   0.0000  24.8920   0.0000   0.0000   0.0000  24.8920 " ConfE="      -5941.6648" DelE="          0.5548"
Ni    -0.07841724    0.08478469   -3.39979834       1
Ni     3.41874292    0.10418139    0.04203655       2
Ni    -0.08974712   -3.52672667    0.01204137       3
Cr    -3.67156975    0.04365150    0.07073163       4
Cr    -0.07995886    0.05967280    3.57729203       5
Co    -0.07992209    3.69083148    0.09421144       6
Ni    -0.09761614    1.94800355   -1.69948166       7
Ni     1.69244522    1.99872846    0.08642115       8
Co    -0.16643572   -1.78446043   -1.75987973       9
Co     1.70495526   -1.82490043    0.09512541      10
Ni    -1.83888943    0.06493405    1.78536228      11
Cr    -0.01069338   -1.64607263    1.69553518      12
Co    -1.81060380   -1.65315342    0.02133187      13
Cr    -1.85377164    0.07272116   -1.65122766      14
Co     1.60297136    0.10387459    1.75593496      15
Cr    -0.07315249    1.80872982    1.75389037      16
Cr    -1.79063618    1.77313461    0.01418239      17
Cr     0.94920122   -0.00728423   -0.91125778      18
          18
Lattice="  24.8920   0.0000   0.0000   0.0000  24.8920   0.0000   0.0000   0.0000  24.8920 " ConfE="      -5942.0769" DelE="          0.1427"
Ni    -0.11234929    0.08829440   -3.51244911       1
Ni     3.45601297    0.10144242    0.04948740       2
Ni    -0.08240432   -3.49387075    0.01315709       3
Cr    -3.67743174    0.03895419    0.08856092       4
Cr    -0.08544574    0.07315092    3.60501235       5
Co    -0.07560820    3.64796100    0.08982528       6
Ni    -0.09271078    1.83522462   -1.66108654       7
Ni     1.66480610    1.87967877    0.06003235       8
Co    -0.15236847   -1.67029368   -1.72798736       9
Co     1.62211391   -1.64985613    0.05286692      10
Ni    -1.83216683    0.06140056    1.80749073      11
Cr    -0.02339577   -1.72043545    1.79906848      12
Co    -1.83387875   -1.66643757    0.06184062      13
Cr    -1.79689887    0.03383243   -1.63671883      14
Co     1.58500825    0.11425922    1.79560952      15
Cr    -0.08377987    1.86195865    1.81988808      16
Cr    -1.84447074    1.76821056    0.03652366      17
Cr     1.53099539   -0.02142068   -1.63662869      18
