          18
Lattice="  24.8920   0.0000   0.0000   0.0000  24.8920   0.0000   0.0000   0.0000  24.8920 " ConfE="      -5939.6144" DelE="          0.0000"
Co    -0.00542741    0.00075354    3.59084133       1
Ni     0.02455324   -3.58257931    0.02818898       2
Co     0.04549809    3.47122983    0.04638798       3
Cr     3.46363821   -0.07247782   -0.02109937       4
Cr     0.01855392   -0.07592178   -3.50261228       5
Cr    -3.51150136   -0.02708750    0.03314201       6
Ni     1.72679534   -0.02510930    1.80853612       7
Ni     0.02648080   -1.84542146    1.83408606       8
Co     1.73868999    1.73994384    0.08727100       9
Ni    -1.74002262   -1.81281314    0.02550714      10
Co    -1.72556641   -0.00374131    1.80958055      11
Cr    -1.63465947    1.66643326    0.09189011      12
Co     1.80874939   -1.80195140    0.00757819      13
Cr     0.02730367    1.70029323   -1.78544256      14
Co     0.04106883   -1.81266397   -1.76007243      15
Co     1.77525473   -0.01929086   -1.75740981      16
Co    -1.75480549   -0.05147272   -1.76593639      17
Co     0.00000000    0.00000000    0.00000000      18
          18
Lattice="  24.8920   0.0000   0.0000   0.0000  24.8920   0.0000   0.0000   0.0000  24.8920 " ConfE="      -5938.9764" DelE="          0.6380"
Co     0.00235079    0.01650544    3.53102602       1
Ni     0.02540576   -3.59760187    0.03325927       2
Co     0.04890086    3.41050975    0.05643898       3
Cr     3.55305306   -0.09919635   -0.01729043       4
Cr     0.01116477   -0.06752111   -3.50664163       5
Cr    -3.56649017   -0.04560564    0.02783986       6
Ni     1.84612991   -0.07705564    1.79381230       7
Ni     0.03439448   -1.80415251    1.80698364       8
Co     1.94906956    1.77017317    0.02051855       9
Ni    -1.71908652   -1.77504062    0.04285992      10
Co    -1.86659020   -0.05036785    1.85609366      11
Cr    -1.90729306    1.76940101    0.02450084      12
Co     1.82096971   -1.81112977    0.01171792      13
Cr     0.05548392    1.66722755   -1.74759282      14
Co     0.04578937   -1.77544755   -1.70900501      15
Co     1.73349805   -0.00725839   -1.68255101      16
Co    -1.69935571   -0.01430747   -1.68027093      17
Co    -0.05001707    0.78408863    0.65600432      18
          18
Lattice="  24.8920   0.0000   0.0000   0.0000  24.8920   0.0000   0.0000   0.0000  24.8920 " ConfE="      -5939.8842" DelE="         -0.2698"
Co     0.00033552   -0.04578623    3.61738405       1
Ni     0.02520992   -3.59299614    0.02887469       2
Co     0.04370216    3.50569673    0.02302548       3
Cr     3.51848400   -0.09304999   -0.02295050       4
Cr     0.01747746   -0.06946386   -3.53898567       5
Cr    -3.55451439   -0.04168769    0.03763953       6
Ni     1.75636186   -0.07441594    1.77321854       7
Ni     0.03297817   -1.82238035    1.81597240       8
Co     1.75229816    1.68369419    0.03169149       9
Ni    -1.71206626   -1.78289282    0.02603278      10
Co    -1.74411207   -0.03695674    1.79051866      11
Cr    -1.65401778    1.62256948    0.04989658      12
Co     1.80742871   -1.79730112   -0.00193410      13
Cr     0.03948283    1.63482027   -1.71183027      14
Co     0.04371387   -1.79954803   -1.74105380      15
Co     1.73004989   -0.03242884   -1.73632228      16
Co    -1.71384483   -0.04788787   -1.72782682      17
Co     0.01722082    1.68776199    1.76862715      18
