          18
Lattice="  24.8920   0.0000   0.0000   0.0000  24.8920   0.0000   0.0000   0.0000  24.8920 " ConfE="      -5945.1930" DelE="          0.0000"
Ni    -3.47926007    0.02095911    0.02369409       1
Ni     0.00885848    3.56006481   -0.02404438       2
Ni    -0.00114316   -3.58577532   -0.03014286       3
Co    -0.06391289    0.00369880    3.45349940       4
Cr     0.07689228    0.02233570   -3.59479307       5
Cr     3.54490569   -0.03176974   -0.04004240       6
Ni    -1.75257556    1.77227162    0.00768399       7
Cr    -1.71499963   -1.68311199    0.10976452       8
Ni    -0.02573369   -1.77028253   -1.80025012       9
Ni     1.77225876   -1.80328816   -0.02933042      10
Co     0.04970698    1.76490963    1.73885844      11
Co    -0.06747769   -1.76661578    1.72537951      12
Cr    -1.72693730    0.02378251   -1.79670920      13
Co     1.74112445    0.03056520   -1.77903637      14
Cr     1.82000937   -0.04926938    1.74258769      15
Cr     0.02638439    1.75828528   -1.80108580      16
Cr     1.76059987    1.73629300    0.02700857      17
Co     0.00000000    0.00000000    0.00000000      18
          18
Lattice="  24.8920   0.0000   0.0000   0.0000  24.8920   0.0000   0.0000   0.0000  24.8920 " ConfE="      -5944.0268" DelE="          1.1662"
Ni    -3.44110316    0.01840946    0.03058641       1
Ni     0.02436420    3.59166994   -0.03266524       2
Ni     0.06425736   -3.54423539   -0.04431181       3
Co    -0.03933382    0.01816133    3.46480771       4
Cr     0.02339937    0.04157392   -3.69640650       5
Cr     3.50347284   -0.07586009   -0.06437107       6
Ni    -1.78567692    1.90265547   -0.04989655       7
Cr    -1.69161626   -1.82016038    0.00970815       8
Ni    -0.05291607   -1.78784728   -1.93208096       9
Ni     1.16249891   -1.15963020   -0.01778746      10
Co     0.10920484    1.92394143    1.77430389      11
Co    -0.01652031   -1.94178145    1.88854646      12
Cr    -1.64203841    0.01308025   -1.66177427      13
Co     1.72718011    0.07320426   -1.97342159      14
Cr     1.74256415   -0.00202182    1.88773753      15
Cr     0.01137210    1.70363939   -1.74225534      16
Cr     1.67789049    1.58956910    0.01059643      17
Co    -0.92685434   -0.01048713    1.01553828      18
          18
Lattice="  24.8920   0.0000   0.0000   0.0000  24.8920   0.0000   0.0000   0.0000  24.8920 " ConfE="      -5944.5892" DelE="          0.6038"
Ni    -3.51855448    0.01432351   -0.03647104       1
Ni     0.03189023    3.53949891   -0.02635772       2
Ni     0.06301725   -3.47758906   -0.03297440       3
Co    -0.01684192    0.01601541    3.54041621       4
Cr     0.03386828    0.04059101   -3.72359212       5
Cr     3.47533034   -0.11235772   -0.09516857       6
Ni    -1.70671033    1.74899388   -0.02909203       7
Cr    -1.64312484   -1.65429517    0.05092163       8
Ni    -0.04365546   -1.78387656   -1.96998694       9
Ni     0.93371271   -0.89904915   -0.02541324      10
Co     0.09053738    1.71696997    1.70990894      11
Co    -0.06812092   -1.81424103    1.89044486      12
Cr    -1.66025058    0.00448890   -1.73939620      13
Co     1.75638416    0.06918287   -2.02015591      14
Cr     1.83026472   -0.01081627    1.90270903      15
Cr     0.04935545    1.69692650   -1.79728876      16
Cr     1.73668828    1.63787015    0.00142170      17
Co    -1.72860762   -0.03947285    1.70354209      18
