          18
Lattice="  24.8920   0.0000   0.0000   0.0000  24.8920   0.0000   0.0000   0.0000  24.8920 " ConfE="      -5924.1499" DelE="          0.0000"
Ni     0.00117777    0.00026294   -3.50370849       1
Ni    -3.55947587    0.00569251    0.01736405       2
Cr    -0.04014833    3.53444473    0.00168878       3
Co     3.56386616    0.02060791    0.02652394       4
Co    -0.08320814   -3.54520031   -0.00256887       5
Cr    -0.01002934   -0.04060321    3.54316426       6
Ni     1.73698129    1.77095740    0.01468173       7
Ni    -1.75086522    0.02378850   -1.76601116       8
Ni    -1.75406357    1.77786722    0.00389324       9
Cr     1.75591708   -0.05142304   -1.68268214      10
Ni    -0.01716192   -1.80006639   -1.75538092      11
Ni    -0.01662855    1.77283652    1.81428897      12
Co     1.74379580   -0.00453333    1.78754547      13
Co     1.75444330   -1.75023689   -0.00481202      14
Co    -0.04648700   -1.76470821    1.78485041      15
Cr    -1.75093762   -1.75278292   -0.00717514      16
Co    -1.75058693   -0.00919859    1.81237228      17
Co     0.00000000    0.00000000    0.00000000      18
          18
Lattice="  24.8920   0.0000   0.0000   0.0000  24.8920   0.0000   0.0000   0.0000  24.8920 " ConfE="      -5923.4876" DelE="          0.6623"
Ni     0.00136203    0.00078421   -3.47510450       1
Ni    -3.62034774   -0.01377532    0.02370599       2
Cr    -0.02532161    3.41747965   -0.05389176       3
Co     3.61785458   -0.00142547    0.04518383       4
Co    -0.09052046   -3.54790126   -0.00718977       5
Cr    -0.00715313   -0.02219994    3.57330451       6
Ni     1.91995681    1.79975857    0.09672677       7
Ni    -1.91491558   -0.03812507   -1.81146458       8
Ni    -1.88230580    1.75548514    0.03239505       9
Cr     1.91227157   -0.09588389   -1.71124230      10
Ni    -0.03248550   -1.74257438   -1.72051211      11
Ni    -0.00527890    1.72304514    1.74505720      12
Co     1.73648686   -0.01293463    1.77637150      13
Co     1.70968623   -1.67603701   -0.00779441      14
Co    -0.05622320   -1.72852587    1.74303029      15
Cr    -1.72030281   -1.68042001    0.03252060      16
Co    -1.75537784   -0.01830579    1.78278466      17
Co     0.07041707    0.68304365   -0.78357057      18
          18
Lattice="  24.8920   0.0000   0.0000   0.0000  24.8920   0.0000   0.0000   0.0000  24.8920 " ConfE="      -5924.3407" DelE="         -0.1908"
Ni     0.00017736   -0.02522621   -3.53353779       1
Ni    -3.58674566   -0.01237007    0.03060604       2
Cr    -0.03407800    3.56873286    0.01596580       3
Co     3.58412213    0.02184796    0.02841439       4
Co    -0.08744733   -3.55926838   -0.00374959       5
Cr    -0.01219766   -0.03421462    3.58129474       6
Ni     1.73699188    1.74322463    0.02923897       7
Ni    -1.75989298   -0.03956314   -1.71102982       8
Ni    -1.76475205    1.73839770    0.04753680       9
Cr     1.75860750   -0.06047943   -1.67556425      10
Ni    -0.01967164   -1.75718488   -1.71391561      11
Ni    -0.01303138    1.74655866    1.78377695      12
Co     1.72081958   -0.00544809    1.76879886      13
Co     1.72349620   -1.69425581   -0.01056630      14
Co    -0.06058314   -1.73532700    1.73825317      15
Cr    -1.73305571   -1.76885814    0.04761647      16
Co    -1.73545554   -0.02572781    1.79488617      17
Co    -0.04331852    1.73217533   -1.71394413      18
