          18
Lattice="  24.8920   0.0000   0.0000   0.0000  24.8920   0.0000   0.0000   0.0000  24.8920 " ConfE="      -5943.1094" DelE="          0.0000"
Ni     3.42199558    0.00166919    0.02924052       1
Ni    -0.08123462   -0.04675285   -3.56601811       2
Cr    -0.04986261    3.40678946    0.00473807       3
Cr    -0.11737698   -0.02125911    3.52475711       4
Co    -0.06562140   -3.55922991   -0.00009982       5
Cr    -3.74322007   -0.03950131   -0.07248995       6
Co     1.63780216   -0.04800474    1.76213967       7
Co    -0.06567552    1.71731706    1.71894466       8
Co     1.72778496   -0.02235208   -1.77292928       9
Co    -0.02194320    1.73812464   -1.75329253      10
Co     1.68670579   -1.82660252   -0.01989613      11
Co    -0.08452936   -1.80647216    1.77201890      12
Co    -1.87161582   -0.04243935    1.71401668      13
Cr    -1.81754011   -1.76481193   -0.03254915      14
Cr    -1.90435215    1.68070808   -0.01523061      15
Co    -0.06038066   -1.80554038   -1.78390893      16
Cr    -1.82777237   -0.03477351   -1.78709709      17
Cr     0.00000000    0.00000000    0.00000000      18
          18
Lattice="  24.8920   0.0000   0.0000   0.0000  24.8920   0.0000   0.0000   0.0000  24.8920 " ConfE="      -5942.3857" DelE="          0.7237"
Ni     3.42388149   -0.03398264    0.01722976       1
Ni    -0.08561917   -0.05861369   -3.61530746       2
Cr    -0.08429804    3.45875627    0.00685211       3
Cr    -0.12320473   -0.03315107    3.59531029       4
Co    -0.05343007   -3.57015825   -0.00068101       5
Cr    -3.71643770   -0.03195490   -0.08510364       6
Co     1.65665024   -0.08261879    1.85000978       7
Co    -0.09724006    1.71603067    1.79217277       8
Co     1.74068560   -0.10090851   -1.91191501       9
Co    -0.09523239    1.74362902   -1.87886884      10
Co     1.65062656   -1.75701059   -0.02408978      11
Co    -0.06990040   -1.76872225    1.74751986      12
Co    -1.81931940   -0.02796666    1.68492715      13
Cr    -1.75645735   -1.70040707   -0.00761356      14
Cr    -1.84164670    1.63808300    0.00150985      15
Co    -0.06228448   -1.76330308   -1.74848235      16
Cr    -1.70642242   -0.03158413   -1.71472558      17
Cr     0.94783843    0.87540453   -0.06552498      18
          18
Lattice="  24.8920   0.0000   0.0000   0.0000  24.8920   0.0000   0.0000   0.0000  24.8920 " ConfE="      -5942.7688" DelE="          0.3406"
Ni     3.48615589   -0.05211774    0.02646635       1
Ni    -0.08761339   -0.05281763   -3.59116921       2
Cr    -0.10080116    3.49437326   -0.01397592       3
Cr    -0.11072940   -0.03290635    3.56448195       4
Co    -0.06060341   -3.58298041   -0.00117383       5
Cr    -3.73705181   -0.03777165   -0.08201071       6
Co     1.62158746   -0.06625064    1.75150941       7
Co    -0.09608434    1.68952950    1.72302232       8
Co     1.70810606   -0.04788348   -1.77093151       9
Co    -0.07057422    1.70356327   -1.77344013      10
Co     1.64820773   -1.77262308   -0.01980571      11
Co    -0.08111886   -1.80038166    1.76737809      12
Co    -1.84227242   -0.05169429    1.70094359      13
Cr    -1.75812284   -1.68945020   -0.01887072      14
Cr    -1.80499104    1.58719119   -0.00895431      15
Co    -0.07566302   -1.77828533   -1.75334000      16
Cr    -1.81158398   -0.04799180   -1.77786915      17
Cr     1.60237239    1.62217250   -0.02049277      18
