          18
Lattice="  24.8920   0.0000   0.0000   0.0000  24.8920   0.0000   0.0000   0.0000  24.8920 " ConfE="      -5938.0856" DelE="          0.0000"
Ni    -0.02335451   -0.00867115   -3.54153327       1
Ni    -3.59098529    0.00699380    0.01401378       2
Cr     3.48838646   -0.01406700    0.09055267       3
Co    -0.07735546    0.00567249    3.54703609       4
Co    -0.04100805    3.54340837   -0.00519335       5
Cr    -0.03504433   -3.50445803    0.04987281       6
Ni    -0.04084159    1.73618372   -1.77796719       7
Ni     0.00796423   -1.73380818   -1.76297747       8
Ni     1.72151918    1.73107158    0.02317195       9
Co     1.80669146   -1.69857689   -0.04908822      10
Ni    -1.80043457    0.00994973    1.76709799      11
Cr    -0.03444339    1.79281135    1.78018803      12
Co    -0.03528780   -1.77884056    1.75846339      13
Cr     1.74271434   -0.06594613    1.88694892      14
Co    -1.86058425    0.03552259   -1.77494082      15
Cr    -1.80230507    1.77048257   -0.00902848      16
Co    -1.81191178   -1.78677819    0.01946374      17
Ni     0.00000000    0.00000000    0.00000000      18
          18
Lattice="  24.8920   0.0000   0.0000   0.0000  24.8920   0.0000   0.0000   0.0000  24.8920 " ConfE="      -5937.2044" DelE="          0.8812"
Ni    -0.01139536   -0.00020919   -3.48018261       1
Ni    -3.58772564   -0.00948686    0.01351674       2
Cr     3.44917130    0.01115237    0.06633287       3
Co    -0.06874127   -0.00350353    3.55284378       4
Co    -0.05412550    3.61182809   -0.00112376       5
Cr    -0.11458236   -3.58107312    0.07488952       6
Ni    -0.07978697    1.85596139   -1.78926925       7
Ni    -0.07395786   -1.88140624   -1.77374647       8
Ni     1.74115354    1.91670366    0.06872651       9
Co     1.83079687   -1.99403598    0.06616178      10
Ni    -1.74518830    0.00349164    1.71794384      11
Cr    -0.02660082    1.75328065    1.71104464      12
Co    -0.00816809   -1.75213777    1.72496611      13
Cr     1.67801908   -0.05625501    1.74309001      14
Co    -1.80438463    0.02336202   -1.72577624      15
Cr    -1.73842615    1.70517340   -0.04928778      16
Co    -1.77159789   -1.79398874    0.01894242      17
Ni     1.02444102   -0.04456619   -0.89985365      18
          18
Lattice="  24.8920   0.0000   0.0000   0.0000  24.8920   0.0000   0.0000   0.0000  24.8920 " ConfE="      -5937.9522" DelE="          0.1334"
Ni    -0.04765140   -0.00347481   -3.56326628       1
Ni    -3.61036028   -0.00345695    0.01469632       2
Cr     3.52510380    0.00101207    0.11229273       3
Co    -0.08134957    0.00288629    3.56698034       4
Co    -0.05046262    3.57032536   -0.00075626       5
Cr    -0.06627502   -3.53509564    0.05272502       6
Ni    -0.06572932    1.74030214   -1.75719778       7
Ni    -0.03136311   -1.73271276   -1.72289818       8
Ni     1.66891286    1.71651358    0.04011188       9
Co     1.75298895   -1.72788986    0.01842665      10
Ni    -1.77280192    0.00965426    1.73541032      11
Cr    -0.04954553    1.75242223    1.75090273      12
Co    -0.02546996   -1.72752387    1.72967097      13
Cr     1.69603803   -0.07053317    1.82482455      14
Co    -1.83505952    0.03860636   -1.74028705      15
Cr    -1.77388564    1.71431541   -0.02457706      16
Co    -1.79035851   -1.77333017    0.02262581      17
Ni     1.73283560    0.00032846   -1.74193049      18
