          18
Lattice="  24.8920   0.0000   0.0000   0.0000  24.8920   0.0000   0.0000   0.0000  24.8920 " ConfE="      -5945.6095" DelE="          0.0000"
Ni    -0.02982258   -3.52600966   -0.00354524       1
Co    -0.04643932    0.00584746    3.48720023       2
Ni    -0.01756883    3.58522327   -0.02677514       3
Cr     0.01098093    0.05164902   -3.57045591       4
Cr     3.50535977   -0.00943271   -0.01459530       5
Cr    -3.51137109    0.03932192   -0.04070262       6
Ni     1.71559656   -1.77307410    0.00658211       7
Cr    -1.74904739   -1.70139381    0.00229402       8
Cr     1.75230540   -0.02869312    1.74557373       9
Ni    -1.75331243   -0.02588188    1.74178338      10
Ni    -0.04276943   -1.74905843   -1.82781234      11
Co     0.02467938    1.81694023    1.74505785      12
Cr     0.00236180    1.77031424   -1.80932981      13
Co     1.73396900    0.04788252   -1.78009777      14
Co    -1.78775586    0.03567317   -1.81022264      15
Cr     1.73438256    1.74540450    0.02043824      16
Ni    -1.77961085    1.81419119   -0.02778882      17
Co     0.00000000    0.00000000    0.00000000      18
          18
Lattice="  24.8920   0.0000   0.0000   0.0000  24.8920   0.0000   0.0000   0.0000  24.8920 " ConfE="      -5944.7987" DelE="          0.8108"
Ni    -0.00699381   -3.49548319    0.00471291       1
Co    -0.07210568    0.01285088    3.46636019       2
Ni    -0.01119833    3.57222034   -0.02109490       3
Cr     0.00579499    0.03870135   -3.58971317       4
Cr     3.58193382   -0.00426923   -0.03657722       5
Cr    -3.61109123    0.07071122   -0.06650365       6
Ni     1.86815051   -1.79364409   -0.05766085       7
Cr    -1.82626616   -1.67461471    0.00592698       8
Cr     1.90995241    0.00891442    1.78282695       9
Ni    -1.96766428    0.08296225    1.78450020      10
Ni    -0.03791239   -1.71226913   -1.75353714      11
Co     0.03458082    1.74377513    1.70403466      12
Cr    -0.00371791    1.70237313   -1.76137252      13
Co     1.70398585    0.05893515   -1.73389075      14
Co    -1.78049298    0.02762967   -1.77279829      15
Cr     1.69479424    1.66403707    0.01707283      16
Ni    -1.77261463    1.78259741   -0.02202520      17
Co     0.01231266   -0.81250254    0.96662201      18
          18
Lattice="  24.8920   0.0000   0.0000   0.0000  24.8920   0.0000   0.0000   0.0000  24.8920 " ConfE="      -5945.4013" DelE="          0.2082"
Ni    -0.03308168   -3.56529060   -0.03180747       1
Co    -0.04912168    0.03017991    3.51845875       2
Ni    -0.00954970    3.59207212   -0.02884072       3
Cr     0.00824807    0.05356156   -3.60471519       4
Cr     3.54313752   -0.00233624   -0.02165585       5
Cr    -3.56010733    0.05651777   -0.05071813       6
Ni     1.71456620   -1.73643162   -0.02455961       7
Cr    -1.75329552   -1.67566045   -0.01321289       8
Cr     1.75092612   -0.02694022    1.72969343       9
Ni    -1.76584866    0.02280336    1.70464694      10
Ni    -0.05335061   -1.72324006   -1.78531669      11
Co     0.05185233    1.75957123    1.69590520      12
Cr     0.00766214    1.74382408   -1.79983463      13
Co     1.67449558    0.08014576   -1.72742982      14
Co    -1.77101317    0.03282286   -1.78717658      15
Cr     1.70892462    1.71244756    0.01116680      16
Ni    -1.74939381    1.79371162   -0.04428175      17
Co    -0.06459829   -1.73714914    1.69610313      18
