          18
Lattice="  24.8920   0.0000   0.0000   0.0000  24.8920   0.0000   0.0000   0.0000  24.8920 " ConfE="      -5924.7499" DelE="          0.0000"
Co    -3.53505249    0.01629949    0.01312631       1
Co     0.01341280    0.00546265   -3.63646989       2
Ni     3.59379225   -0.01952809   -0.01610677       3
Ni     0.04273283   -0.01503808    3.52278341       4
Co     0.02229348   -3.52985228   -0.00103296       5
Co     0.00420002    3.55045729   -0.03928781       6
Ni    -1.77162828   -1.71265548   -0.08661588       7
Co    -1.76609771    1.78053268   -0.00345599       8
Ni    -0.01586086   -1.71440802   -1.81134949       9
Co    -0.04696140    1.72548878   -1.79972092      10
Cr    -1.72082361    0.00432057    1.72733855      11
Ni     1.78808422    0.01811052   -1.80782791      12
Co     1.82687329   -0.02335847    1.75997357      13
Cr     0.05525396   -1.75192529    1.66498199      14
Ni     0.04588248    1.77498867    1.73687519      15
Co     1.85264178   -1.78316302   -0.02485774      16
Ni     1.79494353    1.78232599   -0.04030270      17
Co     0.00000000    0.00000000    0.00000000      18
          18
Lattice="  24.8920   0.0000   0.0000   0.0000  24.8920   0.0000   0.0000   0.0000  24.8920 " ConfE="      -5923.9186" DelE="          0.8312"
Co    -3.43876630    0.02231137   -0.00749646       1
Co    -0.02988927    0.00072288   -3.54126768       2
Ni     3.58295164   -0.02878303   -0.02467910       3
Ni     0.03078141   -0.02221335    3.51976845       4
Co     0.03946410   -3.61542603    0.00309453       5
Co     0.01560359    3.60080847   -0.02602716       6
Ni    -1.78786733   -1.90814343   -0.03954775       7
Co    -1.81813149    1.99856566    0.06417198       8
Ni     0.02241168   -1.85034122   -1.80978462       9
Co     0.02866258    1.91639520   -1.84891988      10
Cr    -1.67939550   -0.03194541    1.61859886      11
Ni     1.72335053    0.00749555   -1.77886541      12
Co     1.75402197   -0.04934457    1.69602524      13
Cr     0.08786054   -1.69158169    1.57700484      14
Ni     0.01598948    1.72165553    1.67241632      15
Co     1.82443689   -1.80106251   -0.03797633      16
Ni     1.75264930    1.76407142   -0.06000660      17
Co    -0.82226013    0.09796857   -0.75696112      18
          18
Lattice="  24.8920   0.0000   0.0000   0.0000  24.8920   0.0000   0.0000   0.0000  24.8920 " ConfE="      -5924.5686" DelE="          0.1813"
Co    -3.55577668    0.01049577    0.02164491       1
Co     0.01485164    0.01641020   -3.64311681       2
Ni     3.59693376   -0.02378874   -0.01799333       3
Ni     0.03918056   -0.01754934    3.53925636       4
Co     0.02807730   -3.56454629    0.00323060       5
Co     0.00751315    3.56689929   -0.03242415       6
Ni    -1.72181400   -1.72259194   -0.04197666       7
Co    -1.74936632    1.77309214    0.01423137       8
Ni     0.01996373   -1.71788683   -1.76873600       9
Co    -0.01345326    1.76377766   -1.79679792      10
Cr    -1.67664312    0.00873087    1.65820877      11
Ni     1.75134285    0.02148734   -1.78798902      12
Co     1.77913964   -0.05144755    1.72343815      13
Cr     0.09980379   -1.70884778    1.64911471      14
Ni     0.04610572    1.72606208    1.69732333      15
Co     1.84249054   -1.78527698   -0.02354627      16
Ni     1.77298129    1.76475167   -0.04697184      17
Co    -1.72199456    0.05378321   -1.74903086      18
