          18
Lattice="  24.8920   0.0000   0.0000   0.0000  24.8920   0.0000   0.0000   0.0000  24.8920 " ConfE="      -5923.6172" DelE="          0.0000"
Ni    -0.06024404    3.54469456   -0.03481237       1
Co    -0.03548425    0.01215989    3.50530316       2
Cr     3.54545414    0.00965682   -0.07807548       3
Ni    -0.03447843    0.00840019   -3.59944638       4
Co    -0.04745218   -3.56627113   -0.02188305       5
Cr    -3.63048501    0.00767382   -0.02556739       6
Ni    -0.00385418    1.74260492    1.74465737       7
Ni     1.76056359   -1.69677897   -0.01994110       8
Co     1.76096360    1.74734691   -0.01070572       9
Ni    -0.05423636    1.78120101   -1.81383941      10
Ni    -0.01405452   -1.75622861   -1.81600687      11
Co    -0.03819875   -1.76189657    1.76930960      12
Ni    -1.80945220    0.01368484   -1.82230693      13
Ni    -1.81960983   -1.74080621   -0.04644896      14
Co     1.81295747    0.03576829   -1.87462150      15
Cr    -1.85631789    1.75449922    0.02109140      16
Cr    -1.82542469    0.03366774    1.75012200      17
Ni     0.00000000    0.00000000    0.00000000      18
          18
Lattice="  24.8920   0.0000   0.0000   0.0000  24.8920   0.0000   0.0000   0.0000  24.8920 " ConfE="      -5923.1074" DelE="          0.5098"
Ni    -0.09778124    3.61621297   -0.04287636       1
Co    -0.02969105    0.01817329    3.46215313       2
Cr     3.40709846    0.00676295   -0.03365225       3
Ni    -0.02077511    0.01011706   -3.58928262       4
Co    -0.05996898   -3.62373622   -0.03234443       5
Cr    -3.63131730    0.00436377   -0.01489090       6
Ni    -0.07071230    1.89448157    1.77781009       7
Ni     1.77808746   -1.91531458   -0.09696015       8
Co     1.75144386    1.97122620   -0.07406519       9
Ni    -0.05510782    1.79314008   -1.79940150      10
Ni    -0.01005252   -1.76594287   -1.80615528      11
Co    -0.06041100   -1.92175501    1.81707238      12
Ni    -1.76199332    0.01837281   -1.77658421      13
Ni    -1.77047201   -1.72876751   -0.02823878      14
Co     1.79467861    0.03371229   -1.79050629      15
Cr    -1.81484747    1.72114944    0.03033087      16
Cr    -1.70766243    0.01818814    1.71665284      17
Ni     0.77619947   -0.00525812    0.73941149      18
          18
Lattice="  24.8920   0.0000   0.0000   0.0000  24.8920   0.0000   0.0000   0.0000  24.8920 " ConfE="      -5923.7050" DelE="         -0.0878"
Ni    -0.07913651    3.56932405   -0.04263515       1
Co    -0.05090194    0.02980422    3.53799151       2
Cr     3.57613515   -0.00387425   -0.09994322       3
Ni    -0.03510118    0.01471987   -3.61089007       4
Co    -0.05398489   -3.58564040   -0.02805313       5
Cr    -3.65950511    0.01208895   -0.03100691       6
Ni    -0.04404384    1.75010044    1.70106368       7
Ni     1.71182564   -1.69962854   -0.06504924       8
Co     1.72573583    1.78356771   -0.06233150       9
Ni    -0.06547466    1.76554310   -1.79797824      10
Ni    -0.02216263   -1.72374071   -1.80513436      11
Co    -0.06734170   -1.73188576    1.73385284      12
Ni    -1.80112201    0.02731794   -1.80602112      13
Ni    -1.79538608   -1.70133116   -0.04909601      14
Co     1.80993931    0.04568302   -1.84365413      15
Cr    -1.85983774    1.73424068    0.01143100      16
Cr    -1.76831049    0.03359259    1.71204401      17
Ni     1.71058598    0.03145351    1.66742368      18
