          18
Lattice="  24.8920   0.0000   0.0000   0.0000  24.8920   0.0000   0.0000   0.0000  24.8920 " ConfE="      -5948.5268" DelE="          0.0000"
Ni    -3.50802071    0.03397273    0.06386931       1
Ni     0.02631589    3.51789386    0.08012379       2
Ni     0.04851574   -3.49324656    0.07269283       3
Cr     0.03188522    0.06318702   -3.42876268       4
Cr     0.06542809   -0.00645644    3.65303058       5
Co     3.59599656    0.01131163    0.07077634       6
Ni    -1.74332653    1.76436508    0.04763781       7
Ni    -1.71330994    0.01543463    1.87508323       8
Cr    -1.72724441   -1.66468566    0.02445373       9
Co     0.04264168    1.72185514   -1.74742060      10
Cr     0.08429149   -1.63442402   -1.72723494      11
Cr     1.79833537    0.02902650    1.80863224      12
Co     1.86906195    0.04237200   -1.71557127      13
Co     0.09228710    1.73025341    1.85969318      14
Cr     0.06654086   -1.72392498    1.84646486      15
Co     1.80846219    1.77479571    0.08028002      16
Co     1.80600427   -1.71128299    0.06237979      17
Co     0.00000000    0.00000000    0.00000000      18
          18
Lattice="  24.8920   0.0000   0.0000   0.0000  24.8920   0.0000   0.0000   0.0000  24.8920 " ConfE="      -5947.8025" DelE="          0.7243"
Ni    -3.49053092    0.03632592    0.05955196       1
Ni     0.04109220    3.58474478    0.10389265       2
Ni     0.06171454   -3.53553145    0.07297736       3
Cr     0.03189368    0.02148104   -3.42712540       4
Cr     0.05709560   -0.01642835    3.65007442       5
Co     3.58263650    0.01066009    0.05171874       6
Ni    -1.74470603    1.85974748    0.08508488       7
Ni    -1.67926086    0.00730396    1.80856945       8
Cr    -1.78259297   -1.81995328    0.13290853       9
Co     0.13308580    1.92125827   -1.75246896      10
Cr     0.19228879   -1.84261706   -1.82282838      11
Cr     1.74496578    0.03598971    1.75348721      12
Co     1.74242488    0.02971833   -1.68727929      13
Co     0.09685133    1.71621262    1.82333629      14
Cr     0.06907816   -1.71184934    1.79786159      15
Co     1.78476953    1.75801923    0.08685707      16
Co     1.73735634   -1.68536601    0.05924899      17
Co    -0.85051729   -0.07458513   -0.94855383      18
          18
Lattice="  24.8920   0.0000   0.0000   0.0000  24.8920   0.0000   0.0000   0.0000  24.8920 " ConfE="      -5948.4966" DelE="          0.0302"
Ni    -3.53890701    0.03436408    0.08604679       1
Ni     0.03776307    3.54201641    0.09411967       2
Ni     0.05094633   -3.51890426    0.07916991       3
Cr     0.07569516    0.02867224   -3.48689563       4
Cr     0.06992926   -0.01114137    3.68217826       5
Co     3.60338721    0.00695165    0.06811011       6
Ni    -1.70786673    1.76560067    0.07711220       7
Ni    -1.67668758    0.00951608    1.83567997       8
Cr    -1.68602951   -1.67357530    0.07537065       9
Co     0.08602049    1.74755445   -1.70953711      10
Cr     0.10757276   -1.62710057   -1.68955065      11
Cr     1.77720559    0.05127934    1.79396706      12
Co     1.80728020    0.03791023   -1.69055995      13
Co     0.11224504    1.70387984    1.84629061      14
Cr     0.08947103   -1.69554393    1.82205167      15
Co     1.79507640    1.74854862    0.09768938      16
Co     1.73360582   -1.66245934    0.07214431      17
Co    -1.68261674    0.00367567   -1.65638674      18
