          18
Lattice="  24.8920   0.0000   0.0000   0.0000  24.8920   0.0000   0.0000   0.0000  24.8920 " ConfE="      -5924.2739" DelE="          0.0000"
Ni    -0.02582075    0.00943645   -3.55430346       1
Cr    -0.13181878    3.47075676    0.00277575       2
Cr    -3.42496876    0.16403320   -0.08386757       3
Ni     0.02524714   -3.56702795   -0.00838080       4
Co    -0.00444094   -0.02324891    3.54965687       5
Cr     3.57970047    0.00223326    0.01106672       6
Ni    -0.03868451    1.77582541   -1.75995866       7
Ni    -1.76096439   -0.00110754    1.74293152       8
Co    -1.78416372    0.02054846   -1.70811775       9
Ni     1.77097398    1.74586111    0.01323436      10
Ni     1.78907479   -0.03095820   -1.76637123      11
Ni     0.00020439   -1.78187026    1.76228731      12
Co    -0.06283076    1.79710711    1.74223323      13
Cr    -1.78208458   -1.81283860   -0.04821492      14
Co     0.05608966   -1.79926594   -1.77148570      15
Cr     1.83697156   -1.75894247    0.04910506      16
Cr     1.76281934   -0.04420669    1.82853520      17
Ni     0.00000000    0.00000000    0.00000000      18
          18
Lattice="  24.8920   0.0000   0.0000   0.0000  24.8920   0.0000   0.0000   0.0000  24.8920 " ConfE="      -5923.7399" DelE="          0.5340"
Ni    -0.01837996   -0.00317139   -3.60729863       1
Cr    -0.14451784    3.41211258   -0.03196910       2
Cr    -3.30923693    0.18094254   -0.09272928       3
Ni     0.01505116   -3.57266301   -0.00651347       4
Co     0.01314621   -0.03773194    3.61029599       5
Cr     3.59896194    0.00101383    0.00027840       6
Ni     0.00288656    1.80650237   -1.92817596       7
Ni    -1.77585886   -0.06345574    1.91395688       8
Co    -1.83436010    0.01250576   -1.89116829       9
Ni     1.70785152    1.71355710    0.00965312      10
Ni     1.75714776   -0.02006675   -1.75995161      11
Ni    -0.00722719   -1.76020816    1.76444204      12
Co    -0.02281082    1.81724339    1.93077827      13
Cr    -1.71100944   -1.73614013   -0.07715681      14
Co     0.01070884   -1.73923808   -1.72439521      15
Cr     1.75479012   -1.68948374    0.04796917      16
Cr     1.71134259   -0.02937851    1.79795476      17
Ni    -0.60133223    0.61183074    0.00349449      18
          18
Lattice="  24.8920   0.0000   0.0000   0.0000  24.8920   0.0000   0.0000   0.0000  24.8920 " ConfE="      -5924.4224" DelE="         -0.1485"
Ni    -0.02002656    0.00123867   -3.56761753       1
Cr    -0.03100537    3.54845200    0.00745214       2
Cr    -3.55813152   -0.00601839   -0.06297827       3
Ni     0.03007242   -3.59073664   -0.00718849       4
Co    -0.00528478   -0.03675170    3.57167405       5
Cr     3.60917147   -0.00039756    0.00860736       6
Ni    -0.00260809    1.75821267   -1.77280575       7
Ni    -1.73788564   -0.03209908    1.72398098       8
Co    -1.74068305   -0.03778406   -1.69177583       9
Ni     1.73462421    1.69733647    0.02121550      10
Ni     1.77234089   -0.03583884   -1.73572448      11
Ni     0.01586674   -1.74632985    1.72081186      12
Co    -0.01252880    1.74945755    1.77151309      13
Cr    -1.71726361   -1.76381967   -0.08355871      14
Co     0.05975142   -1.78153063   -1.72070082      15
Cr     1.81120756   -1.72658844    0.04616693      16
Cr     1.77289638   -0.05149914    1.80052537      17
Ni    -1.73407504    1.74394930   -0.01296241      18
