          18
Lattice="  24.8920   0.0000   0.0000   0.0000  24.8920   0.0000   0.0000   0.0000  24.8920 " ConfE="      -5948.0809" DelE="          0.0000"
Cr    -0.08944374   -0.12100915   -3.38102178       1
Co     0.06723726    3.39090612    0.06331628       2
Ni     0.01432788   -0.09202862    3.65208430       3
Cr     0.02677191   -3.65016202    0.09697911       4
Ni     3.56408324   -0.08467647    0.09999681       5
Ni    -3.48424237   -0.05770395    0.07619605       6
Ni     1.77271902   -0.04011110   -1.67936834       7
Co    -1.68225521   -0.08060089   -1.65257429       8
Cr     1.73185461    1.74144146    0.03218551       9
Co    -1.65042436    1.67460229    0.05822755      10
Co     0.03235564   -1.89793219   -1.65403369      11
Co     0.02679819    1.69316542    1.88756057      12
Co     0.01900599   -1.84342853    1.85503944      13
Ni     1.80663129   -1.86898797    0.11516666      14
Cr    -1.70303953   -1.86260834    0.10107010      15
Cr     1.70599424   -0.06470084    1.80263762      16
Cr    -1.70450226   -0.08815211    1.81778637      17
Cr     0.00000000    0.00000000    0.00000000      18
          18
Lattice="  24.8920   0.0000   0.0000   0.0000  24.8920   0.0000   0.0000   0.0000  24.8920 " ConfE="      -5947.5865" DelE="          0.4944"
Cr    -0.04019842   -0.16482221   -3.42751978       1
Co     0.04298395    3.45955883    0.09970375       2
Ni     0.00917897   -0.08415828    3.65495907       3
Cr     0.02531139   -3.63253791    0.07802237       4
Ni     3.59801961   -0.11785689    0.12364731       5
Ni    -3.53426000   -0.06743906    0.09688177       6
Ni     1.85735388   -0.09306392   -1.66567097       7
Co    -1.78629645   -0.12735252   -1.62338567       8
Cr     1.88078336    1.73270343    0.08405604       9
Co    -1.83854889    1.74335450    0.14515605      10
Co     0.02898579   -1.78860662   -1.60888602      11
Co     0.00096453    1.68559831    1.79342938      12
Co     0.02110315   -1.83639293    1.85333605      13
Ni     1.80970377   -1.86584655    0.12286831      14
Cr    -1.63367562   -1.79163840    0.09206496      15
Cr     1.51152575   -0.02409543    1.62983726      16
Cr    -1.61021711   -0.05604069    1.71643254      17
Cr    -0.04846110    1.13670261   -0.97800930      18
          18
Lattice="  24.8920   0.0000   0.0000   0.0000  24.8920   0.0000   0.0000   0.0000  24.8920 " ConfE="      -5948.0359" DelE="          0.0450"
Cr    -0.08851504   -0.13609099   -3.42508400       1
Co     0.05362982    3.47653048    0.10033265       2
Ni     0.01204511   -0.09802403    3.67662469       3
Cr     0.02880539   -3.65285658    0.09032627       4
Ni     3.58041694   -0.11154386    0.11897180       5
Ni    -3.49251049   -0.06637292    0.08228176       6
Ni     1.75492144   -0.07234384   -1.63619301       7
Co    -1.67245588   -0.09259092   -1.61465612       8
Cr     1.72257119    1.64068556    0.09322570       9
Co    -1.66008106    1.66716462    0.07626890      10
Co     0.01351002   -1.84867556   -1.61009332      11
Co     0.03289493    1.65008416    1.81566512      12
Co     0.01798481   -1.83619588    1.85788643      13
Ni     1.80091405   -1.86988358    0.13474962      14
Cr    -1.65133471   -1.82902510    0.09812138      15
Cr     1.61980292   -0.07351019    1.76655382      16
Cr    -1.63619293   -0.11222171    1.77321894      17
Cr    -0.03297325    1.65157189   -1.56057341      18
