          18
Lattice="  24.8920   0.0000   0.0000   0.0000  24.8920   0.0000   0.0000   0.0000  24.8920 " ConfE="      -5948.1275" DelE="          0.0000"
Ni    -3.60656593    0.05177153    0.00082687       1
Cr     0.03109702   -3.42831134   -0.06141257       2
Co     3.45082783    0.04392279   -0.03702684       3
Co    -0.03809079    3.62751222    0.01863482       4
Cr     0.02375740    0.01803582   -3.55117888       5
Co    -0.04486049    0.03313664    3.55946509       6
Ni    -1.84407230   -1.72333425   -0.02086197       7
Co    -0.01098752   -1.74656270   -1.77300018       8
Cr    -0.01032209   -1.72786375    1.75360696       9
Co     1.71377837    0.01801521   -1.77226630      10
Co     1.72428740    0.04655644    1.79817795      11
Cr    -1.79515544    0.05838826   -1.80310693      12
Co    -1.79666051    0.03108035    1.77530589      13
Cr    -1.76850079    1.84978181    0.06594623      14
Cr     1.73637810    1.82177561    0.02866827      15
Cr     0.00072189    1.81717701   -1.73478373      16
Co    -0.04226177    1.83161470    1.79021182      17
Ni     0.00000000    0.00000000    0.00000000      18
          18
Lattice="  24.8920   0.0000   0.0000   0.0000  24.8920   0.0000   0.0000   0.0000  24.8920 " ConfE="      -5947.5248" DelE="          0.6026"
Ni    -3.58890529    0.04912198   -0.00891586       1
Cr    -0.00433909   -3.45287013   -0.06096946       2
Co     3.43099498    0.04496620   -0.03168861       3
Co    -0.02738591    3.63493179    0.01928758       4
Cr    -0.03249912    0.03108701   -3.66117552       5
Co    -0.06534805    0.06437023    3.63106756       6
Ni    -1.76162880   -1.68314955   -0.04161014       7
Co    -0.10219613   -1.72520986   -1.95872701       8
Cr    -0.13681041   -1.70462537    1.91365285       9
Co     1.70443254    0.07658076   -1.93475063      10
Co     1.73714478    0.10207632    1.95265204      11
Cr    -1.75031146    0.04697132   -1.79131453      12
Co    -1.74432856    0.03779094    1.74076788      13
Cr    -1.67524004    1.78955633    0.04901073      14
Cr     1.62365031    1.66694357    0.04703832      15
Cr     0.00138202    1.73189668   -1.70445386      16
Co    -0.04064031    1.79697343    1.77224525      17
Ni     1.08852168   -1.11577979    0.01473179      18
          18
Lattice="  24.8920   0.0000   0.0000   0.0000  24.8920   0.0000   0.0000   0.0000  24.8920 " ConfE="      -5947.9529" DelE="          0.1745"
Ni    -3.61665945    0.05369709   -0.00394863       1
Cr    -0.02784905   -3.48530830   -0.04435464       2
Co     3.50536261    0.08432576   -0.03088880       3
Co    -0.04256849    3.65752338    0.01520067       4
Cr     0.00815944    0.01447065   -3.59974524       5
Co    -0.05027905    0.04886273    3.59388295       6
Ni    -1.79148410   -1.68371785   -0.02542576       7
Co    -0.05471793   -1.68800832   -1.79037197       8
Cr    -0.06076687   -1.68587457    1.76250340       9
Co     1.65418741    0.06662924   -1.75309041      10
Co     1.68638152    0.07619634    1.79081112      11
Cr    -1.77024584    0.06010465   -1.77861094      12
Co    -1.75995710    0.03981642    1.74143317      13
Cr    -1.70242947    1.80006718    0.05545449      14
Cr     1.64150984    1.75565671    0.05831859      15
Cr    -0.00825502    1.75561913   -1.69466828      16
Co    -0.05537606    1.81586613    1.76954139      17
Ni     1.70980388   -1.66202867    0.00165403      18
