          18
Lattice="  24.8920   0.0000   0.0000   0.0000  24.8920   0.0000   0.0000   0.0000  24.8920 " ConfE="      -5949.7964" DelE="          0.0000"
Ni     0.05889298    0.00008997    3.44434601       1
Ni     3.52259250   -0.00103333   -0.06223550       2
Cr     0.02082514    0.03570346   -3.64973738       3
Cr    -3.54025295   -0.02293615   -0.03459442       4
Ni    -0.00813523   -3.54180414   -0.03345773       5
Co     0.01443644    3.57337997   -0.00740221       6
Cr    -0.00153191   -1.78434726    1.73261557       7
Cr     0.04646298    1.81197307    1.72071151       8
Ni     1.76184207   -1.72685064   -0.02442353       9
Co     1.76313283    1.76729832    0.03186325      10
Co    -1.80513861    0.02345499    1.76489195      11
Cr     1.77980406    0.03610496   -1.82709524      12
Co    -1.78443835    0.02252149   -1.83817039      13
Co    -1.80280091   -1.74143767   -0.02980168      14
Ni    -1.77170606    1.78097946   -0.02278720      15
Ni     0.00616210   -1.74067904   -1.81536238      16
Ni     0.02204848    1.78581700   -1.80057383      17
Ni     0.00000000    0.00000000    0.00000000      18
          18
Lattice="  24.8920   0.0000   0.0000   0.0000  24.8920   0.0000   0.0000   0.0000  24.8920 " ConfE="      -5949.3367" DelE="          0.4597"
Ni     0.05440385   -0.01113751    3.40255199       1
Ni     3.51789201   -0.00750264   -0.04881648       2
Cr     0.03677416    0.02566403   -3.66290212       3
Cr    -3.55387974   -0.02600643   -0.02761301       4
Ni    -0.01413116   -3.59504633   -0.04582899       5
Co     0.00980181    3.60157418   -0.01249951       6
Cr    -0.08434703   -1.97117614    1.77612669       7
Cr    -0.09078245    2.01616381    1.78098283       8
Ni     1.77741331   -1.81599477   -0.05070816       9
Co     1.81616881    1.89630865   -0.01574803      10
Co    -1.79080411    0.01440940    1.74982201      11
Cr     1.71876174    0.04254076   -1.73060168      12
Co    -1.74061472    0.01454181   -1.80718188      13
Co    -1.73402506   -1.70575571   -0.00461675      14
Ni    -1.73504482    1.75636896   -0.02626593      15
Ni     0.01012486   -1.74169285   -1.79782534      16
Ni     0.02891609    1.78443176   -1.78961239      17
Ni     0.56777216    0.03690205    0.79024482      18
          18
Lattice="  24.8920   0.0000   0.0000   0.0000  24.8920   0.0000   0.0000   0.0000  24.8920 " ConfE="      -5949.8312" DelE="         -0.0348"
Ni     0.00448063   -0.02065455    3.53465617       1
Ni     3.54423242   -0.00186185   -0.06949420       2
Cr     0.02696624    0.03212118   -3.67896429       3
Cr    -3.56103115   -0.02098983   -0.03205154       4
Ni    -0.01623191   -3.55950392   -0.04341647       5
Co     0.00700915    3.59024505   -0.01839461       6
Cr    -0.09228073   -1.75496001    1.66568183       7
Cr    -0.02366521    1.79178302    1.71162042       8
Ni     1.72175290   -1.71476659   -0.05611746       9
Co     1.74676169    1.76859891   -0.01705432      10
Co    -1.73134812    0.00524065    1.73256905      11
Cr     1.75565089    0.04935517   -1.79519115      12
Co    -1.76768178    0.02213117   -1.83246352      13
Co    -1.75661904   -1.70219103   -0.03157712      14
Ni    -1.74081807    1.74716461   -0.03296946      15
Ni     0.00192543   -1.70664810   -1.79859112      16
Ni     0.01905706    1.75630333   -1.78847598      17
Ni     1.70035587   -0.00994153    1.71376265      18
