          18
Lattice="  24.8920   0.0000   0.0000   0.0000  24.8920   0.0000   0.0000   0.0000  24.8920 " ConfE="      -5947.5564" DelE="          0.0000"
Co     0.03802014   -0.01028519   -3.43404643       1
Ni     0.05639075    3.47271694    0.04786180       2
Co     0.06718123   -0.05718950    3.62691554       3
Ni     0.05735535   -3.58439191    0.05445455       4
Co    -3.48882908   -0.08854779    0.01292947       5
Cr     3.64634893   -0.02843283    0.08221796       6
Co    -1.67861241   -0.04626149   -1.71250940       7
Cr     1.72363983    0.03335622   -1.68819842       8
Co    -1.70119593    1.73350838    0.02174899       9
Co     1.81264511    1.69537805    0.00588120      10
Cr     0.04071361   -1.79635509   -1.71863214      11
Ni     0.06062629    1.74039838    1.85539721      12
Ni     0.06684590   -1.79169929    1.82913878      13
Co    -1.74034609   -1.86221614    0.02960178      14
Ni     1.83496803   -1.79317953    0.04566959      15
Ni    -1.71741590   -0.05984409    1.82198863      16
Co     1.83563591   -0.00133639    1.80236870      17
Cr     0.00000000    0.00000000    0.00000000      18
          18
Lattice="  24.8920   0.0000   0.0000   0.0000  24.8920   0.0000   0.0000   0.0000  24.8920 " ConfE="      -5946.8431" DelE="          0.7133"
Co     0.03979509   -0.00475189   -3.38553031       1
Ni     0.05516363    3.43189579    0.06650083       2
Co     0.06846213   -0.05197725    3.63675997       3
Ni     0.06247788   -3.58110351    0.04854352       4
Co    -3.54213457   -0.09841508    0.01403965       5
Cr     3.69799075   -0.03612982    0.09362187       6
Co    -1.79839703   -0.05950914   -1.73187534       7
Cr     1.88470513   -0.00896935   -1.74943929       8
Co    -1.81011307    1.75958984    0.05660751       9
Co     1.93160293    1.73177683    0.08702247      10
Cr     0.02847695   -1.74746487   -1.69600497      11
Ni     0.05897648    1.71742574    1.82403500      12
Ni     0.07005944   -1.74668776    1.79026434      13
Co    -1.71219003   -1.81937460    0.00376031      14
Ni     1.80650270   -1.72948662    0.02075251      15
Ni    -1.69854003   -0.04824751    1.77735602      16
Co     1.84223518    0.01240079    1.78605021      17
Cr     0.06264001    0.71416699   -0.66699007      18
          18
Lattice="  24.8920   0.0000   0.0000   0.0000  24.8920   0.0000   0.0000   0.0000  24.8920 " ConfE="      -5947.5344" DelE="          0.0220"
Co     0.01813573   -0.04560657   -3.51874206       1
Ni     0.05152046    3.51041839    0.07696370       2
Co     0.07400601   -0.06502233    3.65104663       3
Ni     0.06218555   -3.59415466    0.05016594       4
Co    -3.52218720   -0.10987342    0.02582254       5
Cr     3.64748823   -0.02563037    0.09442799       6
Co    -1.69001881   -0.09504820   -1.69221521       7
Cr     1.73516580   -0.00673755   -1.65681671       8
Co    -1.70254171    1.70708880    0.05708910       9
Co     1.79680550    1.66906154    0.02195297      10
Cr     0.03280116   -1.69741072   -1.66566135      11
Ni     0.06261269    1.71067801    1.82313874      12
Ni     0.07073993   -1.77273206    1.80992828      13
Co    -1.72769936   -1.86867809    0.02681993      14
Ni     1.82641837   -1.78065332    0.05591008      15
Ni    -1.68934675   -0.07582534    1.80081839      16
Co     1.85097236   -0.00536022    1.80710776      17
Cr    -0.07346907    1.62858455   -1.65985031      18
