          18
Lattice="  24.8920   0.0000   0.0000   0.0000  24.8920   0.0000   0.0000   0.0000  24.8920 " ConfE="      -5933.4692" DelE="          0.0000"
Ni     3.45481949   -0.08647890    0.00206529       1
Ni    -0.06972108   -0.07655611    3.60640984       2
Cr    -0.06528492    3.41757719   -0.00630937       3
Co    -0.06023216   -0.11223084   -3.58623241       4
Cr    -0.00727253   -3.61674797    0.01272608       5
Cr    -3.56826295   -0.16626501    0.01453365       6
Cr     1.69338079   -0.07008413   -1.77965457       7
Ni    -0.06286206   -1.86680236   -1.78705072       8
Cr    -0.02609312    1.68680482   -1.78519682       9
Cr     1.68302468   -0.06500584    1.74866710      10
Cr    -0.06791059    1.66583207    1.74664892      11
Co     1.69949420   -1.89495200   -0.00297705      12
Co    -1.81408847   -0.07897328   -1.79325043      13
Cr    -1.80722985   -1.82173106   -0.03074548      14
Co    -1.90719297    1.65999951   -0.03953518      15
Cr    -0.11904890   -1.80597304    1.77060433      16
Co    -1.82490448   -0.04636574    1.79253303      17
Co     0.00000000    0.00000000    0.00000000      18
          18
Lattice="  24.8920   0.0000   0.0000   0.0000  24.8920   0.0000   0.0000   0.0000  24.8920 " ConfE="      -5932.9003" DelE="          0.5689"
Ni     3.48339463   -0.09906169   -0.00507023       1
Ni    -0.08138333   -0.11160380    3.66072004       2
Cr    -0.04791650    3.39670355   -0.00231992       3
Co    -0.07722683   -0.15045974   -3.64687829       4
Cr    -0.01506964   -3.60236666    0.01664463       5
Cr    -3.60052754   -0.14817439    0.00868656       6
Cr     1.71846520   -0.15566904   -1.93061944       7
Ni    -0.06791983   -1.82562001   -1.77187398       8
Cr    -0.09306561    1.63287931   -1.94037785       9
Cr     1.72299444   -0.12629378    1.88799160      10
Cr    -0.12711248    1.57261963    1.83764765      11
Co     1.66372841   -1.79434135   -0.00767944      12
Co    -1.80839093   -0.08193582   -1.79489589      13
Cr    -1.80139300   -1.76834021   -0.04898512      14
Co    -1.81614553    1.59800706   -0.04258965      15
Cr    -0.11243164   -1.66495632    1.66385063      16
Co    -1.83003029   -0.05825050    1.79807165      17
Co     1.19045001    1.05962076   -0.04308865      18
          18
Lattice="  24.8920   0.0000   0.0000   0.0000  24.8920   0.0000   0.0000   0.0000  24.8920 " ConfE="      -5933.2490" DelE="          0.2203"
Ni     3.51244834   -0.10440270   -0.00013594       1
Ni    -0.07295753   -0.09005684    3.62989660       2
Cr    -0.09983803    3.47140310   -0.00424010       3
Co    -0.06569910   -0.12112438   -3.60195650       4
Cr    -0.02808183   -3.63010961    0.01788498       5
Cr    -3.60384394   -0.17897996    0.00731807       6
Cr     1.66737966   -0.09773776   -1.77157379       7
Ni    -0.06908021   -1.84516027   -1.75801738       8
Cr    -0.06991598    1.63394826   -1.75918899       9
Cr     1.66408941   -0.09422586    1.73124727      10
Cr    -0.10073365    1.57523200    1.71275892      11
Co     1.67547360   -1.84395921    0.00418290      12
Co    -1.79755358   -0.08309177   -1.76896176      13
Cr    -1.80560661   -1.79609314   -0.03559155      14
Co    -1.85904397    1.62449919   -0.03650284      15
Cr    -0.12679787   -1.72544902    1.70849469      16
Co    -1.81740596   -0.05755064    1.77471820      17
Co     1.66288454    1.62500345   -0.02223944      18
