          18
Lattice="  24.8920   0.0000   0.0000   0.0000  24.8920   0.0000   0.0000   0.0000  24.8920 " ConfE="      -5928.2360" DelE="          0.0000"
Cr    -0.03204000    3.36187582    0.04237504       1
Cr    -3.20132373    0.10275441    0.01587127       2
Ni     0.11817888   -0.11522409    3.62493525       3
Co     0.11834318   -0.09356437   -3.54632771       4
Cr     0.12115425   -3.72185880   -0.03419871       5
Co     3.65161298   -0.10051284   -0.01071072       6
Ni    -1.62402986   -0.12538144    1.84594851       7
Ni     0.06815993    1.67378080    1.81349864       8
Ni     0.07679472    1.67044511   -1.76596018       9
Cr    -1.64193237   -0.12537124   -1.79962492      10
Ni    -1.63263881   -1.92335599    0.05393374      11
Ni     1.84103675   -0.10568796    1.79345450      12
Cr     1.86887213    1.64488709    0.02071159      13
Cr     0.14561698   -1.94511420    1.85480107      14
Cr     1.84077670   -0.15249711   -1.75246579      15
Cr     0.08785869   -1.96571854   -1.86206587      16
Co     1.81353661   -1.87691965    0.01769869      17
Cr     0.00000000    0.00000000    0.00000000      18
          18
Lattice="  24.8920   0.0000   0.0000   0.0000  24.8920   0.0000   0.0000   0.0000  24.8920 " ConfE="      -5927.5009" DelE="          0.7351"
Cr    -0.00040295    3.38861557    0.02288834       1
Cr    -3.33207106    0.03259609    0.00428856       2
Ni     0.13747797   -0.13040767    3.67168910       3
Co     0.14542398   -0.09987428   -3.61457096       4
Cr     0.09522720   -3.70212021   -0.02971367       5
Co     3.65593002   -0.08610558   -0.01131300       6
Ni    -1.65416030   -0.18422694    1.99710657       7
Ni     0.11580034    1.67095978    1.91999793       8
Ni     0.12206873    1.70259706   -1.89169012       9
Cr    -1.62481390   -0.16620749   -1.95931824      10
Ni    -1.61985278   -1.82348925    0.04784875      11
Ni     1.81536736   -0.08929148    1.77257575      12
Cr     1.81041385    1.64149644    0.01287728      13
Cr     0.13175222   -1.87205944    1.78331968      14
Cr     1.71900632   -0.11134489   -1.64369811      15
Cr     0.10256904   -1.87899353   -1.77680575      16
Co     1.79508925   -1.84457754    0.02233127      17
Cr    -0.86014199    0.70215228    0.01546548      18
          18
Lattice="  24.8920   0.0000   0.0000   0.0000  24.8920   0.0000   0.0000   0.0000  24.8920 " ConfE="      -5928.2338" DelE="          0.0022"
Cr     0.09202712    3.45700885    0.03829073       1
Cr    -3.45651600   -0.14250520    0.01224527       2
Ni     0.11722365   -0.11729236    3.61898560       3
Co     0.12762975   -0.10241512   -3.56210838       4
Cr     0.12459605   -3.72663555   -0.03234950       5
Co     3.69096579   -0.11148268   -0.00684758       6
Ni    -1.61040598   -0.13761792    1.78170835       7
Ni     0.11064085    1.63976355    1.77624508       8
Ni     0.13792631    1.62601883   -1.74208188       9
Cr    -1.59476946   -0.15543426   -1.74365476      10
Ni    -1.59280658   -1.89381402    0.04176721      11
Ni     1.84992883   -0.12286532    1.77809190      12
Cr     1.84957711    1.59228034    0.00548289      13
Cr     0.15550469   -1.93349265    1.82598300      14
Cr     1.81892514   -0.18125308   -1.70084353      15
Cr     0.10866288   -1.94150511   -1.83539938      16
Co     1.81072431   -1.85956087    0.01225178      17
Cr    -1.62827657    1.60212021   -0.01344744      18
