          18
Lattice="  24.8920   0.0000   0.0000   0.0000  24.8920   0.0000   0.0000   0.0000  24.8920 " ConfE="      -5948.6517" DelE="          0.0000"
Ni    -3.56808382    0.04097780    0.01090758       1
Co     0.02261221    0.00890786   -3.47281190       2
Co     3.58023320    0.00270008   -0.02376522       3
Cr    -0.06094876    0.04786206    3.58023686       4
Cr     0.00970694    3.55693650    0.00342833       5
Co    -0.02182711   -3.48766964   -0.02002561       6
Ni     1.77488890    1.76394016   -0.00263437       7
Ni     1.78012923   -1.71976318    0.02151357       8
Ni    -1.79623061    0.04038425   -1.76583136       9
Ni    -1.78813774    1.80659401    0.03158712      10
Co     0.00346123    1.81349312   -1.73094966      11
Cr     0.13408161   -1.59976323   -1.76701838      12
Ni     0.00190852    1.80060017    1.78860817      13
Cr    -1.70929838   -1.71356349   -0.03376038      14
Co    -1.73495118    0.01672779    1.80669617      15
Co     1.75594622    0.01086676    1.85166472      16
Co     0.00471909   -1.76908339    1.81576369      17
Co     0.00000000    0.00000000    0.00000000      18
          18
Lattice="  24.8920   0.0000   0.0000   0.0000  24.8920   0.0000   0.0000   0.0000  24.8920 " ConfE="      -5945.0257" DelE="          3.6260"
Ni    -3.77480361    0.28635825    0.33609169       1
Co     0.09851524    0.03998447   -3.58379771       2
Co     3.60439664    0.00936906   -0.01650236       3
Cr    -0.05711338    0.08161618    3.62498524       4
Cr     0.02948132    3.62791085    0.02805382       5
Co     0.08957796   -3.59270057    0.03864293       6
Ni     1.76525957    1.75199573    0.01840677       7
Ni     1.71042260   -1.61951785   -0.00372362       8
Ni    -1.31061323    0.18534393   -1.69582557       9
Ni    -1.76211039    1.81397598    0.07200758      10
Co     0.13598422    2.00102737   -1.74054738      11
Cr     0.07317325   -1.73862282   -1.77476092      12
Ni     0.01495052    1.80559790    1.78495344      13
Cr    -3.01395273   -1.13672429   -1.17766970      14
Co    -1.65874063    0.01468985    1.81534977      15
Co     1.75811418    0.02486595    1.86869864      16
Co     0.10059771   -1.80467221    1.93374564      17
Co    -1.40353422   -1.76615270    0.11483328      18
          18
Lattice="  24.8920   0.0000   0.0000   0.0000  24.8920   0.0000   0.0000   0.0000  24.8920 " ConfE="      -5948.7734" DelE="         -0.1217"
Ni    -3.55550481    0.03092072    0.01827627       1
Co     0.00761727    0.00593226   -3.44775616       2
Co     3.58138835    0.00660988   -0.02039780       3
Cr    -0.06909196    0.05035348    3.58587651       4
Cr     0.00671198    3.57218632    0.00508871       5
Co     0.00702464   -3.50139254   -0.00479517       6
Ni     1.78202489    1.78789425    0.00316666       7
Ni     1.79215185   -1.71853400    0.02237908       8
Ni     0.03198585    0.03047739    0.01205046       9
Ni    -1.77710421    1.79188482    0.02287948      10
Co    -0.01845435    1.79247173   -1.73859829      11
Cr     0.13866472   -1.65864836   -1.78555106      12
Ni     0.00691719    1.81099936    1.79973155      13
Cr    -1.75962344   -0.08153510   -1.75570305      14
Co    -1.72290222    0.01353890    1.81492841      15
Co     1.76528707    0.01217871    1.86531898      16
Co     0.01547169   -1.77627433    1.82850210      17
Co    -1.73651533   -1.76214492   -0.04494995      18
