          18
Lattice="  24.8920   0.0000   0.0000   0.0000  24.8920   0.0000   0.0000   0.0000  24.8920 " ConfE="      -5940.2515" DelE="          0.0000"
Ni    -0.01835588   -0.03327226    3.46479001       1
Co     3.49343674   -0.04957007   -0.04645612       2
Co    -0.04664129   -0.02131968   -3.63490078       3
Co    -3.63157808   -0.04507028   -0.06107610       4
Ni    -0.05788428   -3.58203435   -0.07892659       5
Ni    -0.03242067    3.46820894   -0.07643765       6
Co    -0.01198208   -1.76931700    1.72079292       7
Co    -0.02990218    1.66794665    1.69012098       8
Ni     1.74000518   -1.78888187   -0.04975418       9
Cr     1.70270341    1.63992469    0.01018437      10
Cr    -1.85297668   -0.08226751    1.75191089      11
Ni     1.72232918   -0.06743947   -1.86149900      12
Cr    -1.88269354   -0.06777307   -1.87330949      13
Ni    -1.81140223   -1.79147357   -0.05663366      14
Ni    -1.82546365    1.70183806   -0.07622204      15
Ni    -0.07236302   -1.79820289   -1.85236339      16
Co    -0.03979890    1.68933018   -1.81718744      17
Cr     0.00000000    0.00000000    0.00000000      18
          18
Lattice="  24.8920   0.0000   0.0000   0.0000  24.8920   0.0000   0.0000   0.0000  24.8920 " ConfE="      -5939.6808" DelE="          0.5707"
Ni    -0.01581616   -0.02897005    3.41336490       1
Co     3.45310297   -0.05799674   -0.04258765       2
Co    -0.03466887   -0.02483730   -3.63687889       3
Co    -3.64089963   -0.04581247   -0.05154619       4
Ni    -0.06046527   -3.63248876   -0.08379681       5
Ni    -0.04155398    3.50281087   -0.06665076       6
Co    -0.02763585   -1.85863524    1.71841581       7
Co    -0.08609812    1.83210701    1.78676051       8
Ni     1.76463147   -1.90012417   -0.10387295       9
Cr     1.74622147    1.80744641   -0.08592326      10
Cr    -1.84744222   -0.07358110    1.74719834      11
Ni     1.70319839   -0.07672167   -1.81141917      12
Cr    -1.81389349   -0.06505916   -1.79484079      13
Ni    -1.76900942   -1.77136362   -0.03643199      14
Ni    -1.76637483    1.66073092   -0.03359959      15
Ni    -0.06372546   -1.80068012   -1.82165576      16
Co    -0.01438086    1.65275004   -1.73973989      17
Cr     0.66730361    0.03580206    0.66703023      18
          18
Lattice="  24.8920   0.0000   0.0000   0.0000  24.8920   0.0000   0.0000   0.0000  24.8920 " ConfE="      -5940.5715" DelE="         -0.3200"
Ni    -0.04475208   -0.03188534    3.51638235       1
Co     3.53619856   -0.04436443   -0.07119234       2
Co    -0.04683147   -0.02261872   -3.66117361       3
Co    -3.65943375   -0.04585436   -0.06106276       4
Ni    -0.06634670   -3.60472495   -0.08667477       5
Ni    -0.04756090    3.48998280   -0.08404482       6
Co    -0.04630950   -1.76006779    1.70180281       7
Co    -0.04945257    1.64992329    1.66786675       8
Ni     1.71255484   -1.79159580   -0.07549120       9
Cr     1.62894965    1.63354816   -0.03033339      10
Cr    -1.79505909   -0.10432802    1.72948013      11
Ni     1.69263548   -0.06591700   -1.82180074      12
Cr    -1.86672920   -0.07857111   -1.85251719      13
Ni    -1.79560034   -1.76798284   -0.06652353      14
Ni    -1.79579674    1.65564035   -0.08135299      15
Ni    -0.08536784   -1.79471138   -1.85795206      16
Co    -0.03928445    1.67162268   -1.80016596      17
Cr     1.67801685   -0.04398916    1.68754342      18
