          18
Lattice="  24.8920   0.0000   0.0000   0.0000  24.8920   0.0000   0.0000   0.0000  24.8920 " ConfE="      -5941.5486" DelE="          0.0000"
Cr    -0.00341699    0.04622519    3.50713887       1
Ni    -0.01657746    3.50953056    0.05390145       2
Co    -0.00059672   -0.02916096   -3.55656936       3
Ni    -0.00170452   -3.60730694   -0.00932215       4
Cr    -3.49884849    0.00785994    0.06303671       5
Cr     3.60726401    0.00750244    0.00912764       6
Co    -1.66620292    0.01478938    1.78168403       7
Ni     1.73455337    0.02680024    1.75052692       8
Cr    -1.72156350    1.71720247    0.08545697       9
Cr     1.79755452    1.79804124   -0.00189301      10
Cr     0.03906958   -1.84278847    1.78830066      11
Co    -0.02991941    1.75278970   -1.79272760      12
Ni     0.01855696   -1.82545825   -1.77935727      13
Ni    -1.77180234   -1.80978824   -0.00338128      14
Cr     1.83381588   -1.83673135   -0.02623919      15
Cr    -1.75172807   -0.05204437   -1.80901126      16
Ni     1.78743258   -0.03426189   -1.77683929      17
Cr     0.00000000    0.00000000    0.00000000      18
          18
Lattice="  24.8920   0.0000   0.0000   0.0000  24.8920   0.0000   0.0000   0.0000  24.8920 " ConfE="      -5941.0325" DelE="          0.5162"
Cr     0.00322414    0.03939986    3.50674167       1
Ni    -0.00511186    3.50381568    0.03860518       2
Co    -0.00090963   -0.01364745   -3.54768526       3
Ni    -0.00785974   -3.60009152   -0.00120748       4
Cr    -3.61761661   -0.01071472    0.05802433       5
Cr     3.70918629   -0.05359871   -0.01765913       6
Co    -1.76556232   -0.03491885    1.78944008       7
Ni     1.89873116   -0.04346234    1.77236425       8
Cr    -1.89515962    1.75873232    0.01954833       9
Cr     2.01791821    1.81272436   -0.07786492      10
Cr     0.05988843   -1.75317465    1.75328613      11
Co    -0.02915803    1.69759904   -1.68406599      12
Ni     0.01396019   -1.77498927   -1.73701623      13
Ni    -1.74371295   -1.73921800    0.00550375      14
Cr     1.76842352   -1.76239239   -0.00342698      15
Cr    -1.69435890    0.01823719   -1.69561178      16
Ni     1.77984747   -0.02919702   -1.72111419      17
Cr     0.04887364    1.04922392    0.88621430      18
          18
Lattice="  24.8920   0.0000   0.0000   0.0000  24.8920   0.0000   0.0000   0.0000  24.8920 " ConfE="      -5941.6635" DelE="         -0.1149"
Cr     0.02044410   -0.02875758    3.55506421       1
Ni    -0.03215804    3.58155827    0.00822908       2
Co    -0.00312450   -0.02634142   -3.57378153       3
Ni    -0.00987194   -3.62334530   -0.01360291       4
Cr    -3.54118533   -0.00208032    0.05600216       5
Cr     3.62072964    0.00268601   -0.00242787       6
Co    -1.66695684   -0.02499531    1.74738100       7
Ni     1.74587330   -0.01189338    1.70431040       8
Cr    -1.68722757    1.65223969    0.03611634       9
Cr     1.76324514    1.76511357   -0.04362840      10
Cr     0.04942225   -1.81283459    1.74790938      11
Co    -0.04898348    1.69659864   -1.70149887      12
Ni     0.01128968   -1.80584081   -1.76354646      13
Ni    -1.74569983   -1.77490466   -0.01217773      14
Cr     1.78335798   -1.81206969   -0.02817238      15
Cr    -1.73348855   -0.03653418   -1.77591759      16
Ni     1.76260924   -0.04356974   -1.74633684      17
Cr     0.02541449    1.74359425    1.76423376      18
