          18
Lattice="  24.8920   0.0000   0.0000   0.0000  24.8920   0.0000   0.0000   0.0000  24.8920 " ConfE="      -5946.6254" DelE="          0.0000"
Ni     0.03336907   -0.05164115    3.52893807       1
Ni     0.04415426   -3.60497765   -0.01641610       2
Cr     0.02695380    3.43373936    0.04956480       3
Cr     0.00264081    0.02558389   -3.55556363       4
Cr     3.65570384   -0.02867764    0.02252251       5
Co    -3.49765996   -0.03917834    0.00553966       6
Ni     1.79417953   -0.06317525    1.77473193       7
Ni    -1.72172579   -0.04772605    1.77077155       8
Ni     1.78988077    1.70094645    0.04474278       9
Ni     1.81794788   -0.04154268   -1.78003536      10
Cr    -1.70309613    1.71016297    0.03200249      11
Ni     0.06429014   -1.86014811    1.75559387      12
Ni     0.02151108   -1.78844090   -1.80228673      13
Ni    -1.73166906   -1.83251694   -0.01648631      14
Cr    -1.77536213   -0.00708296   -1.76805008      15
Co     0.02635257    1.72177963   -1.78334522      16
Cr     1.85944283   -1.79445762   -0.06360320      17
Cr     0.00000000    0.00000000    0.00000000      18
          18
Lattice="  24.8920   0.0000   0.0000   0.0000  24.8920   0.0000   0.0000   0.0000  24.8920 " ConfE="      -5945.3169" DelE="          1.3086"
Ni     0.02797424   -0.04927742    3.44851071       1
Ni     0.05639183   -3.54140015   -0.04783573       2
Cr     0.03752798    3.43207219   -0.00499245       3
Cr     0.04617731   -0.01691714   -3.48531264       4
Cr     3.82768933   -0.03480677    0.02286256       5
Co    -3.60359394   -0.04688802    0.00913548       6
Ni     1.93415511   -0.09658154    1.73834545       7
Ni    -1.88467497   -0.12611556    1.78406782       8
Ni     1.96404390    1.67006050   -0.03450563       9
Ni     2.00745680   -0.00160890   -1.79932558      10
Cr    -1.89965574    1.71389958   -0.03584737      11
Ni     0.07731818   -1.75072759    1.65036855      12
Ni     0.03651100   -1.11002881   -1.15620346      13
Ni    -1.84778915   -1.84182897    0.02364088      14
Cr    -1.87786734    0.04136821   -1.71545863      15
Co     0.03569580    1.65272945   -1.68672633      16
Cr     1.99611766   -1.77912885   -0.05785774      17
Cr    -0.03826020    0.87140031    0.84545668      18
          18
Lattice="  24.8920   0.0000   0.0000   0.0000  24.8920   0.0000   0.0000   0.0000  24.8920 " ConfE="      -5946.8869" DelE="         -0.2614"
Ni     0.03039596   -0.08856686    3.55616965       1
Ni     0.04776050   -3.62422212   -0.01892721       2
Cr     0.00895093    3.50712104   -0.00437397       3
Cr     0.00257812    0.02539492   -3.56004093       4
Cr     3.65505090   -0.03098677    0.02186509       5
Co    -3.53289925   -0.04609710    0.00328882       6
Ni     1.78596324   -0.08598629    1.74570183       7
Ni    -1.72304660   -0.09068215    1.73526735       8
Ni     1.77844330    1.67744036    0.02959610       9
Ni     1.80161265   -0.05653168   -1.75938607      10
Cr    -1.69393957    1.66443924   -0.00044647      11
Ni     0.07005986   -1.84513630    1.72874817      12
Ni     0.02585699   -1.77306238   -1.78844256      13
Ni    -1.71074059   -1.81282120   -0.03564512      14
Cr    -1.75064633   -0.02206983   -1.75837289      15
Co    -0.02280544    1.65285080   -1.67077898      16
Cr     1.86666032   -1.79819407   -0.07144045      17
Cr    -0.02974370    1.70077528    1.77166498      18
