          18
Lattice="  24.8920   0.0000   0.0000   0.0000  24.8920   0.0000   0.0000   0.0000  24.8920 " ConfE="      -5949.7080" DelE="          0.0000"
Cr    -3.44347629   -0.03704884   -0.03969546       1
Co    -0.02629764   -0.02481999   -3.50571216       2
Cr     3.48932419    0.05316378    0.03557659       3
Co     0.02929746   -0.03120226    3.61297560       4
Co     0.03369946   -3.56704552    0.01863191       5
Cr     0.06745590    3.44731487    0.01795340       6
Cr    -1.67953971   -1.70968439   -0.09218435       7
Co    -1.74994119    1.70723056   -0.02288754       8
Co    -0.05184827   -1.77562185   -1.73214493       9
Co    -0.00257756    1.72309399   -1.76701579      10
Ni    -1.73125927   -0.03408269    1.82251404      11
Co     1.79230206   -0.02034929   -1.75891186      12
Cr     1.73010049    0.07134301    1.80331879      13
Ni     0.02173825   -1.80258623    1.79994611      14
Co     0.02979217    1.74854255    1.81863243      15
Ni     1.76284261   -1.77870066    0.03313888      16
Co     1.77925520    1.77293933    0.00036760      17
Co     0.00000000    0.00000000    0.00000000      18
          18
Lattice="  24.8920   0.0000   0.0000   0.0000  24.8920   0.0000   0.0000   0.0000  24.8920 " ConfE="      -5949.1319" DelE="          0.5761"
Cr    -3.37270271   -0.03686017   -0.07542891       1
Co    -0.04142407   -0.02350887   -3.43877916       2
Cr     3.51112961    0.05262909    0.01887995       3
Co     0.02444315   -0.03676170    3.59929400       4
Co     0.03805689   -3.61368960    0.02024748       5
Cr     0.09187734    3.52023813    0.02329874       6
Cr    -1.71430160   -1.87723478   -0.05199579       7
Co    -1.77508814    1.93222048    0.02244443       8
Co    -0.01294781   -1.92026052   -1.78849615       9
Co     0.04087442    1.88054492   -1.79129913      10
Ni    -1.71251308   -0.03031266    1.75977434      11
Co     1.72670596   -0.02082416   -1.71685957      12
Cr     1.67744626    0.07908775    1.72654740      13
Ni     0.00921900   -1.80418948    1.77000718      14
Co     0.02526800    1.72516074    1.76909692      15
Ni     1.71808167   -1.76321136    0.01848986      16
Co     1.72921522    1.73635221   -0.00020945      17
Co    -0.67852821   -0.00286500   -0.63452456      18
          18
Lattice="  24.8920   0.0000   0.0000   0.0000  24.8920   0.0000   0.0000   0.0000  24.8920 " ConfE="      -5949.9057" DelE="         -0.1978"
Cr    -3.54498409   -0.04741204    0.01194752       1
Co     0.00630006   -0.02910622   -3.54008947       2
Cr     3.53313117    0.05909678    0.03994920       3
Co     0.02714260   -0.03168016    3.61745220       4
Co     0.04363052   -3.58117587    0.02671954       5
Cr     0.10283504    3.47946434    0.02529661       6
Cr    -1.67716799   -1.73372837   -0.06402322       7
Co    -1.70989435    1.72676037    0.02362410       8
Co    -0.03073815   -1.78187652   -1.70163621       9
Co     0.03284290    1.72530600   -1.72429962      10
Ni    -1.71228441   -0.03643802    1.76012022      11
Co     1.75398593   -0.01945247   -1.72508803      12
Cr     1.71955119    0.08471348    1.77568276      13
Ni     0.02189399   -1.77583931    1.77476333      14
Co     0.04940147    1.71557441    1.79936195      15
Ni     1.74296877   -1.73617094    0.04239016      16
Co     1.76355451    1.71867780    0.02695391      17
Co    -1.72072733   -0.00709984   -1.69786964      18
