          18
Lattice="  24.8920   0.0000   0.0000   0.0000  24.8920   0.0000   0.0000   0.0000  24.8920 " ConfE="      -5948.9141" DelE="          0.0000"
Ni    -3.44381719    0.02692667    0.04653701       1
Ni     3.61602416    0.06220631    0.03110225       2
Co    -0.01289230   -3.41544727    0.07260893       3
Cr     0.10296354    3.64236324    0.04342953       4
Co     0.07256604    0.02779978    3.58020597       5
Co     0.08158763    0.06613936   -3.51800620       6
Cr    -1.66382644   -0.03251488    1.76323322       7
Co    -1.70542272    0.02856734   -1.72641609       8
Ni     0.04937770    1.82522905    1.80761748       9
Co     0.00477952   -1.69810034    1.79046963      10
Co     0.02746576   -1.66961659   -1.68232238      11
Ni     1.82074275    0.05309688    1.78967273      12
Co    -1.65426259    1.80528702    0.05161904      13
Co     0.06066128    1.81707650   -1.72493984      14
Co     1.80374914    1.83171649    0.02944460      15
Co     1.83036207    0.05239709   -1.74322858      16
Cr     1.78649076   -1.67227636   -0.02756888      17
Cr     0.00000000    0.00000000    0.00000000      18
          18
Lattice="  24.8920   0.0000   0.0000   0.0000  24.8920   0.0000   0.0000   0.0000  24.8920 " ConfE="      -5948.1810" DelE="          0.7332"
Ni    -3.41748788    0.04211590    0.05474804       1
Ni     3.63422360    0.06057353    0.03772653       2
Co    -0.00301877   -3.35647463    0.06520333       3
Cr     0.09784241    3.61624846    0.04584797       4
Co     0.08150759    0.04245193    3.63193215       5
Co     0.10399439    0.07627318   -3.57260141       6
Cr    -1.73586234    0.04553520    1.93593312       7
Co    -1.71480220    0.06622661   -1.83418361       8
Ni     0.03873243    1.78903658    1.80503249       9
Co     0.07863031   -1.73203781    1.92158887      10
Co     0.05456198   -1.68539301   -1.79801913      11
Ni     1.78200744    0.04212025    1.76358372      12
Co    -1.62718731    1.75575266    0.05626538      13
Co     0.05725179    1.77119170   -1.70104904      14
Co     1.76648610    1.80387451    0.03506070      15
Co     1.79260088    0.03335510   -1.69861714      16
Cr     1.76531746   -1.63288284   -0.03492720      17
Cr    -0.73143975   -0.68733253    0.07821779      18
          18
Lattice="  24.8920   0.0000   0.0000   0.0000  24.8920   0.0000   0.0000   0.0000  24.8920 " ConfE="      -5948.5435" DelE="          0.3707"
Ni    -3.48794847    0.05871023    0.04595182       1
Ni     3.62045920    0.06228174    0.03322197       2
Co     0.03051561   -3.46983207    0.05772244       3
Cr     0.10809055    3.63381629    0.03950140       4
Co     0.08237613    0.04047306    3.61735659       5
Co     0.09111909    0.07256655   -3.55467640       6
Cr    -1.65325363    0.06725805    1.78538589       7
Co    -1.67904851    0.05299345   -1.73367290       8
Ni     0.06727195    1.82686874    1.80916241       9
Co     0.05043563   -1.69016942    1.81771984      10
Co     0.06588351   -1.65284432   -1.70821992      11
Ni     1.79470247    0.06513013    1.76801584      12
Co    -1.60738953    1.72729225    0.06490974      13
Co     0.08035506    1.81622019   -1.73441629      14
Co     1.79024606    1.83720740    0.02883746      15
Co     1.81140055    0.05325082   -1.71489963      16
Cr     1.68991277   -1.61201766   -0.02810985      17
Cr    -1.49210401   -1.52910440    0.05391664      18
