          18
Lattice="  24.8920   0.0000   0.0000   0.0000  24.8920   0.0000   0.0000   0.0000  24.8920 " ConfE="      -5935.5496" DelE="          0.0000"
Cr    -0.00366206   -0.10019090   -3.48319835       1
Co     0.00010882   -3.59159015   -0.01340556       2
Co    -0.02923578   -0.00700364    3.59857304       3
Cr     0.01016959    3.43545065    0.09541514       4
Co    -3.53514911   -0.00809184   -0.00974064       5
Co     3.58558898   -0.05257989    0.00537566       6
Ni    -1.73326841   -1.79342751    0.02089799       7
Ni     1.74150658   -1.80761409    0.00655528       8
Ni     1.74998085   -0.08146595   -1.74866882       9
Co    -1.65801682   -0.04907268   -1.75052833      10
Ni     0.00975370   -1.80533026    1.82978074      11
Ni     1.79039058   -0.06756235    1.82993408      12
Cr     0.01354524    1.77435699   -1.69581346      13
Co    -1.75173588    1.72887262    0.03840506      14
Co     0.01243095    1.71023698    1.81016964      15
Co    -1.76423829   -0.02454279    1.83295976      16
Co     1.79230053    1.72384565    0.00126716      17
Co     0.00000000    0.00000000    0.00000000      18
          18
Lattice="  24.8920   0.0000   0.0000   0.0000  24.8920   0.0000   0.0000   0.0000  24.8920 " ConfE="      -5934.7297" DelE="          0.8199"
Cr     0.00357574   -0.15626029   -3.36209454       1
Co     0.00609654   -3.47211081   -0.07006572       2
Co    -0.02528599   -0.01339054    3.59161897       3
Cr     0.01071837    3.46168892    0.06569253       4
Co    -3.60556054   -0.00551190    0.02874355       5
Co     3.66074620   -0.02673678    0.01672029       6
Ni    -1.91031375   -1.82358293    0.07717284       7
Ni     1.93814591   -1.84280383    0.03492133       8
Ni     1.94440398   -0.04683790   -1.77515101       9
Co    -1.91452400    0.02380919   -1.75400083      10
Ni     0.01417691   -1.76711972    1.74687603      11
Ni     1.78707933   -0.08052766    1.78144405      12
Cr     0.01872525    1.65907643   -1.64271952      13
Co    -1.69272816    1.65586187    0.04419331      14
Co     0.01296636    1.66255463    1.76027930      15
Co    -1.77864335   -0.03528553    1.83042700      16
Co     1.75808061    1.67528523   -0.01466545      17
Co    -0.01676975   -0.73853721   -0.72401863      18
          18
Lattice="  24.8920   0.0000   0.0000   0.0000  24.8920   0.0000   0.0000   0.0000  24.8920 " ConfE="      -5935.5912" DelE="         -0.0416"
Cr     0.01764934   -0.06520732   -3.57578056       1
Co     0.00609115   -3.61379313    0.02287640       2
Co    -0.03016655   -0.00491109    3.61620149       3
Cr     0.01858240    3.47637810    0.08741876       4
Co    -3.55050481   -0.00638587   -0.00121574       5
Co     3.59697490   -0.04119881    0.01060712       6
Ni    -1.72638609   -1.76694479    0.04315505       7
Ni     1.73653648   -1.76461381    0.03573082       8
Ni     1.73778341   -0.03917907   -1.73263228       9
Co    -1.64572083   -0.01838794   -1.70503031      10
Ni     0.00956579   -1.78056553    1.80887364      11
Ni     1.78186211   -0.06221594    1.83245468      12
Cr    -0.03480991    1.69611581   -1.62276482      13
Co    -1.69483494    1.68583821    0.05509637      14
Co     0.01257755    1.68110533    1.78317271      15
Co    -1.75346982   -0.02757779    1.83631165      16
Co     1.74411664    1.70048216    0.00494784      17
Co     0.01364401   -1.80558762   -1.76483687      18
