          18
Lattice="  24.8920   0.0000   0.0000   0.0000  24.8920   0.0000   0.0000   0.0000  24.8920 " ConfE="      -5925.6901" DelE="          0.0000"
Ni     0.07136986   -3.51820917    0.01585271       1
Co     0.02483200    0.01395672   -3.46879505       2
Ni     0.05091998    3.59072399    0.02806841       3
Ni     0.01953902    0.01977592    3.56994981       4
Ni    -3.52168673    0.06363663    0.01360824       5
Ni     3.56772798    0.00389747    0.05077446       6
Cr    -1.67772977   -1.75314730   -0.11528437       7
Ni     1.79372421   -1.77905564    0.00634866       8
Co    -1.73841670    0.03706717   -1.73398039       9
Ni     1.79027638    0.00034064   -1.74214786      10
Cr     0.02285789   -1.75781545    1.80399132      11
Cr     0.06867144    1.84565575   -1.77902679      12
Cr     0.05067175    1.80432392    1.77739010      13
Cr    -1.66905735    0.02861337    1.69234921      14
Co     1.74239854    0.02788672    1.79906505      15
Cr    -1.68660620    1.81051281   -0.03976037      16
Ni     1.79575313    1.79213028    0.04408721      17
Co     0.00000000    0.00000000    0.00000000      18
          18
Lattice="  24.8920   0.0000   0.0000   0.0000  24.8920   0.0000   0.0000   0.0000  24.8920 " ConfE="      -5924.5050" DelE="          1.1851"
Ni     0.07509999   -3.51758893   -0.00507478       1
Co     0.03855302    0.03879946   -3.40689175       2
Ni     0.05466568    3.59659537    0.02239245       3
Ni    -0.00116519    0.01427444    3.50526016       4
Ni    -3.52686402    0.06888818    0.05419278       5
Ni     3.61469582    0.01055818    0.06916374       6
Cr    -1.87333156   -1.88809491   -0.07755833       7
Ni     1.89493637   -1.78876592    0.05438994       8
Co    -1.91596091    0.15832479   -1.73572585       9
Ni     1.90667151    0.03369909   -1.73822823      10
Cr     0.06033768   -1.81599851    1.73157971      11
Cr     0.01119691    1.67545577   -1.61685043      12
Cr     0.13535892    1.91544990    1.83628463      13
Cr    -1.08753545    0.08366607    1.07640152      14
Co     1.66165496    0.01397033    1.73236085      15
Cr    -1.78736953    1.95792319   -0.09271794      16
Ni     1.76604543    1.75581070    0.04249043      17
Co    -0.08781742   -1.05039044   -1.02330237      18
          18
Lattice="  24.8920   0.0000   0.0000   0.0000  24.8920   0.0000   0.0000   0.0000  24.8920 " ConfE="      -5925.3963" DelE="          0.2938"
Ni     0.05484151   -3.52744642    0.05236326       1
Co     0.03541591    0.06213057   -3.47374917       2
Ni     0.04408002    3.57618926    0.03678118       3
Ni    -0.00734756    0.02485311    3.52805172       4
Ni    -3.47169746    0.06480811    0.05943881       5
Ni     3.58484503    0.01133756    0.05610881       6
Cr    -1.72215117   -1.73690644    0.00400354       7
Ni     1.80926884   -1.76406321    0.04687308       8
Co    -1.77293125    0.06225529   -1.77176441       9
Ni     1.82217178    0.02477916   -1.73179327      10
Cr    -0.04023670   -1.68393939    1.76163858      11
Cr     0.03591475    1.80997674   -1.76177748      12
Cr    -0.00155307    1.74907293    1.75050815      13
Cr    -0.02037088    0.04512897    0.00407949      14
Co     1.76832775    0.03759210    1.79450982      15
Cr    -1.70782115    1.79774650    0.01105406      16
Ni     1.80235441    1.79980044    0.05230328      17
Co     0.00470607   -1.72774190   -1.72073029      18
