          18
Lattice="  24.8920   0.0000   0.0000   0.0000  24.8920   0.0000   0.0000   0.0000  24.8920 " ConfE="      -5922.7294" DelE="          0.0000"
Cr    -0.05529971    0.12149769    3.72235264       1
Cr    -0.03246711    3.73259363    0.11754928       2
Co    -0.03457901    0.09239851   -3.46460209       3
Cr    -0.03090738   -3.27235553    0.11142679       4
Co    -3.60793439    0.14717049    0.12440676       5
Ni     3.42201907    0.14553920    0.09173304       6
Ni    -1.77080545    0.14468563    1.86281291       7
Ni     1.63873397    0.14399278    1.88145151       8
Cr    -1.66930610    1.85092539    0.13593744       9
Cr     1.54521677    1.89365638    0.11587728      10
Co    -0.07983486   -1.66443999    1.89795069      11
Ni    -0.07108096    1.88872046   -1.72691044      12
Co    -0.06986012   -1.66901435   -1.72141443      13
Ni    -1.85338767   -1.62881572    0.09853309      14
Co     1.69192566   -1.65668498    0.10405820      15
Ni    -1.85899564    0.12072287   -1.70244726      16
Co     1.68494126    0.12442316   -1.68984041      17
Cr     0.00000000    0.00000000    0.00000000      18
          18
Lattice="  24.8920   0.0000   0.0000   0.0000  24.8920   0.0000   0.0000   0.0000  24.8920 " ConfE="      -5922.0280" DelE="          0.7014"
Cr    -0.05897984    0.14733871    3.62289925       1
Cr    -0.04814748    3.74112768    0.13096976       2
Co    -0.03889103    0.11520871   -3.43691272       3
Cr    -0.02396565   -3.28078784    0.12495919       4
Co    -3.69914232    0.12117378    0.09766877       5
Ni     3.51922414    0.11189538    0.08243788       6
Ni    -1.92822861    0.12200587    1.87302758       7
Ni     1.81116014    0.09861289    1.88519484       8
Cr    -2.00028067    1.87915127    0.08859863       9
Cr     1.91508672    1.97077429   -0.01879120      10
Co    -0.07519913   -1.52356348    1.86483437      11
Ni    -0.06067449    1.87513864   -1.59800170      12
Co    -0.05275418   -1.62492112   -1.65328908      13
Ni    -1.82072677   -1.58210422    0.10591360      14
Co     1.66069947   -1.60629123    0.09924055      15
Ni    -1.83717555    0.14314282   -1.63986362      16
Co     1.67866277    0.14702954   -1.61653123      17
Cr    -0.00651506    1.11789762    0.90346919      18
          18
Lattice="  24.8920   0.0000   0.0000   0.0000  24.8920   0.0000   0.0000   0.0000  24.8920 " ConfE="      -5922.6029" DelE="          0.1265"
Cr    -0.06336288    0.11590143    3.70275503       1
Cr    -0.04429376    3.76022326    0.07186435       2
Co    -0.03717884    0.09707282   -3.47968615       3
Cr    -0.01862375   -3.30527752    0.11938701       4
Co    -3.65596650    0.12463607    0.10490660       5
Ni     3.46979901    0.12204689    0.07800900       6
Ni    -1.80576816    0.13988025    1.83539766       7
Ni     1.65807754    0.11898306    1.83605879       8
Cr    -1.79486986    1.85008323    0.08831662       9
Cr     1.65090547    1.85745709    0.02663636      10
Co    -0.09169204   -1.61819102    1.88167552      11
Ni    -0.07456327    1.85656786   -1.65976707      12
Co    -0.05611791   -1.65822597   -1.69760493      13
Ni    -1.80875151   -1.60602188    0.08939137      14
Co     1.64379147   -1.63274698    0.08625886      15
Ni    -1.84325434    0.11907037   -1.67985385      16
Co     1.68186686    0.11509234   -1.67560424      17
Cr    -0.04440585    1.91316026    1.75167206      18
