          18
Lattice="  24.8920   0.0000   0.0000   0.0000  24.8920   0.0000   0.0000   0.0000  24.8920 " ConfE="      -5938.4016" DelE="          0.0000"
Ni    -0.03578284    0.02230114    3.54090442       1
Ni    -0.08095422    3.56311692    0.01888965       2
Co     3.42455415   -0.00029240    0.01450177       3
Co    -0.04284065   -3.61015375   -0.04459657       4
Co    -3.62334707    0.02880527    0.01778865       5
Cr    -0.06212217   -0.03977494   -3.50889624       6
Ni    -0.03649912   -1.72971093    1.75159422       7
Ni    -0.03678131    1.76152400    1.80121192       8
Ni     1.69360661    1.77971571    0.03967719       9
Ni    -1.82283719   -1.75746018    0.00852745      10
Ni    -1.81215706   -0.00771614   -1.74420252      11
Co     1.74416790   -1.82375117   -0.05143201      12
Ni    -0.07175558    1.78624275   -1.74074054      13
Co    -1.89750706    0.03089154    1.78334130      14
Co    -0.04383093   -1.81140538   -1.76884850      15
Cr     1.69909418   -0.01034589   -1.75108180      16
Co    -1.86101633    1.76397839    0.02896981      17
Co     0.00000000    0.00000000    0.00000000      18
          18
Lattice="  24.8920   0.0000   0.0000   0.0000  24.8920   0.0000   0.0000   0.0000  24.8920 " ConfE="      -5937.6788" DelE="          0.7228"
Ni    -0.04234108    0.01403582    3.49719354       1
Ni    -0.08919754    3.61113585    0.00449951       2
Co     3.39375019    0.00538309    0.00454356       3
Co    -0.07158417   -3.67626268   -0.06019026       4
Co    -3.61740103    0.02965607    0.02644095       5
Cr    -0.04969853   -0.03806143   -3.52549615       6
Ni    -0.11919706   -1.91772255    1.77761278       7
Ni    -0.08498928    1.88381938    1.81288242       8
Ni     1.71766538    1.92064720   -0.01068965       9
Ni    -1.80003944   -1.76084154    0.01697222      10
Ni    -1.75970356   -0.01313534   -1.69226780      11
Co     1.76304897   -1.98230792   -0.08028139      12
Ni    -0.06116857    1.74617027   -1.67513667      13
Co    -1.83130321    0.02117207    1.75549255      14
Co    -0.02411528   -1.78946995   -1.73625618      15
Cr     1.63970192   -0.04270329   -1.60038926      16
Co    -1.85701088    1.76813676    0.05272327      17
Co     0.97482748   -0.04682357    0.98320349      18
          18
Lattice="  24.8920   0.0000   0.0000   0.0000  24.8920   0.0000   0.0000   0.0000  24.8920 " ConfE="      -5938.2843" DelE="          0.1173"
Ni    -0.06981455    0.01989798    3.57028059       1
Ni    -0.09032397    3.57395888    0.00755058       2
Co     3.48039262    0.00861884    0.00270239       3
Co    -0.04058865   -3.61470876   -0.04905941       4
Co    -3.63904903    0.02757845    0.01611984       5
Cr    -0.06504363   -0.04397122   -3.55847880       6
Ni    -0.06880147   -1.71590535    1.72642956       7
Ni    -0.09052943    1.76715414    1.77344066       8
Ni     1.66481228    1.76596680    0.00906067       9
Ni    -1.80941960   -1.73988740    0.00584508      10
Ni    -1.78008103   -0.01630089   -1.72324420      11
Co     1.73154259   -1.79046480   -0.04992924      12
Ni    -0.07161019    1.73006572   -1.70906503      13
Co    -1.89858152    0.03290397    1.78033726      14
Co    -0.02536778   -1.76986127   -1.75070756      15
Cr     1.69094666   -0.03814755   -1.70449559      16
Co    -1.87718739    1.75747335    0.02719723      17
Co     1.67398567    0.04030529    1.73502271      18
