          18
Lattice="  24.8920   0.0000   0.0000   0.0000  24.8920   0.0000   0.0000   0.0000  24.8920 " ConfE="      -5922.4859" DelE="          0.0000"
Ni     0.01830651    0.01157089   -3.51683950       1
Ni     3.52612590    0.00071590   -0.00955852       2
Co     0.03284178    0.04712447    3.55937816       3
Ni    -3.55701084    0.02172911    0.01147098       4
Co     0.02122831   -3.47342891    0.02102641       5
Ni     0.03217561    3.55692102   -0.00509879       6
Ni     0.04375812   -1.70983003   -1.75705619       7
Cr     0.02811528    1.70651337   -1.74533333       8
Co     1.73305166   -1.69286817    0.04027258       9
Ni     1.78795491    1.74636033   -0.03740449      10
Co    -1.80376862    0.00908124   -1.73899912      11
Cr     1.78851961    0.00573885    1.84751205      12
Ni    -1.76595654    0.02412403    1.78086661      13
Cr    -1.77247741   -1.77051869    0.00305615      14
Cr    -1.77649291    1.81795703   -0.01086274      15
Cr     0.04207599   -1.74360889    1.81699033      16
Ni     0.01251948    1.78977707    1.77492789      17
Cr     0.00000000    0.00000000    0.00000000      18
          18
Lattice="  24.8920   0.0000   0.0000   0.0000  24.8920   0.0000   0.0000   0.0000  24.8920 " ConfE="      -5921.6296" DelE="          0.8562"
Ni     0.00300269   -0.00315669   -3.50252679       1
Ni     3.50356761    0.00162742   -0.00887865       2
Co     0.05171115    0.05763238    3.56085018       3
Ni    -3.56139474    0.01653658    0.00574321       4
Co     0.02544767   -3.54756362    0.01258868       5
Ni     0.02540787    3.60130841   -0.00052615       6
Ni    -0.02280364   -1.86641254   -1.80121595       7
Cr    -0.02475878    1.84905381   -1.75335357       8
Co     1.75491973   -1.79103509    0.03655062       9
Ni     1.83298225    1.88179207    0.02754309      10
Co    -1.70273881    0.01325760   -1.68103735      11
Cr     1.76208550    0.00801241    1.78975411      12
Ni    -1.72279235    0.02505862    1.74457368      13
Cr    -1.64827601   -1.66240435   -0.02394640      14
Cr    -1.69976859    1.71599516   -0.03394352      15
Cr     0.06344471   -1.67460480    1.69036866      16
Ni     0.02887867    1.75677845    1.71325854      17
Cr     1.00286873    0.03203977   -1.06985011      18
          18
Lattice="  24.8920   0.0000   0.0000   0.0000  24.8920   0.0000   0.0000   0.0000  24.8920 " ConfE="      -5922.5685" DelE="         -0.0826"
Ni    -0.01350013    0.00385831   -3.56842566       1
Ni     3.57383548   -0.00207664    0.03157517       2
Co     0.02898727    0.04646789    3.59881078       3
Ni    -3.57941098    0.02209286    0.01071112       4
Co     0.02791950   -3.50813791    0.01971161       5
Ni     0.02993393    3.55384942   -0.00704701       6
Ni    -0.00331942   -1.69932475   -1.71272447       7
Cr     0.01667569    1.65600359   -1.71039693       8
Co     1.68977515   -1.64615323    0.08914371       9
Ni     1.75827233    1.70779846   -0.02474957      10
Co    -1.73534515    0.04095990   -1.68417158      11
Cr     1.76629266   -0.02072850    1.84467772      12
Ni    -1.74069096    0.01549367    1.75631519      13
Cr    -1.75612665   -1.72689917    0.03036722      14
Cr    -1.73479625    1.74558293   -0.03355045      15
Cr     0.03234138   -1.70621900    1.78652385      16
Ni     0.01807922    1.73216116    1.73695114      17
Cr     1.84246705   -0.10690258   -1.82934842      18
