          18
Lattice="  24.8920   0.0000   0.0000   0.0000  24.8920   0.0000   0.0000   0.0000  24.8920 " ConfE="      -5945.0718" DelE="          0.0000"
Co    -3.51538825    0.02575440   -0.02778886       1
Co     0.01267647   -3.50218354   -0.00027131       2
Cr     3.57268882    0.03436048   -0.00242594       3
Cr    -0.01525466    3.58792367   -0.03489507       4
Co     0.02484437    0.06612510   -3.58529911       5
Ni    -0.00699604    0.01849022    3.53467038       6
Ni    -1.73809991    0.05036102   -1.79219299       7
Co    -1.73838174    0.00663254    1.71157081       8
Ni    -0.02212913   -1.74053378   -1.75281610       9
Cr    -0.09366442   -1.79505968    1.71409053      10
Ni    -1.75795894    1.81037419   -0.02152386      11
Co     1.82492408   -1.73762309   -0.00331911      12
Cr     1.79757485    1.80314778   -0.03673435      13
Co     0.06832624    1.84049728   -1.76601112      14
Cr    -0.00149130    1.80590328    1.72826469      15
Co     1.81435379    0.04330440   -1.76852116      16
Ni     1.76982798    0.01650712    1.76532614      17
Ni     0.00000000    0.00000000    0.00000000      18
          18
Lattice="  24.8920   0.0000   0.0000   0.0000  24.8920   0.0000   0.0000   0.0000  24.8920 " ConfE="      -5944.4607" DelE="          0.6111"
Co    -3.48725104    0.00830843   -0.03144762       1
Co     0.01123139   -3.49785860   -0.00798457       2
Cr     3.56626626    0.02459880    0.00332020       3
Cr    -0.02683704    3.59309089   -0.03286610       4
Co     0.05163252    0.07773864   -3.64104811       5
Ni     0.01159885    0.02551856    3.60188735       6
Ni    -1.73886169    0.08917100   -1.94000198       7
Co    -1.74780542    0.14921771    1.89733886       8
Ni     0.05109899   -1.76279045   -1.92153429       9
Cr     0.00168465   -1.83050565    1.89100281      10
Ni    -1.70314488    1.71801074   -0.03359893      11
Co     1.74023250   -1.70952109   -0.00020980      12
Cr     1.71927111    1.73493180   -0.04253121      13
Co     0.07840216    1.81269353   -1.75547502      14
Cr    -0.02093500    1.73139653    1.70863307      15
Co     1.77792878    0.04478389   -1.73782563      16
Ni     1.73563366    0.01203524    1.75786791      17
Ni    -0.94382695   -0.92793715    0.02122541      18
          18
Lattice="  24.8920   0.0000   0.0000   0.0000  24.8920   0.0000   0.0000   0.0000  24.8920 " ConfE="      -5945.0859" DelE="         -0.0141"
Co    -3.54394000    0.05139726   -0.02457365       1
Co     0.03984785   -3.54469134   -0.01035140       2
Cr     3.59198536    0.03981875   -0.00415541       3
Cr    -0.01960870    3.61073614   -0.02587346       4
Co     0.03920356    0.07899365   -3.61236652       5
Ni     0.01047096    0.02627019    3.57307593       6
Ni    -1.69952023    0.07384233   -1.79831415       7
Co    -1.66691830    0.08779601    1.73198740       8
Ni     0.02981436   -1.69752233   -1.76713678       9
Cr    -0.00015969   -1.73679630    1.74114526      10
Ni    -1.72271607    1.78585055   -0.03120632      11
Co     1.77312261   -1.70449495    0.00167845      12
Cr     1.75328393    1.77280401   -0.05195787      13
Co     0.08680539    1.83018757   -1.74027768      14
Cr    -0.00509093    1.73824237    1.68887080      15
Co     1.80174099    0.06587359   -1.73294350      16
Ni     1.75014070    0.03490703    1.73970226      17
Ni    -1.68313521   -1.65253756    0.01038814      18
