          18
Lattice="  24.8920   0.0000   0.0000   0.0000  24.8920   0.0000   0.0000   0.0000  24.8920 " ConfE="      -5945.1059" DelE="          0.0000"
Ni    -3.48738716   -0.01875936    0.03606229       1
Ni    -0.00548580   -3.52525576    0.00424811       2
Co     3.57989030   -0.00725745    0.02992943       3
Ni     0.07170502    3.52883943    0.00640537       4
Co     0.03957562    0.00729511   -3.53850369       5
Ni     0.02746617   -0.02211219    3.58229335       6
Cr    -1.70278701    0.07631007   -1.71757364       7
Ni    -1.72923962   -0.02554870    1.78126646       8
Ni    -0.01122870   -1.77007146   -1.73716834       9
Co     0.08389217   -1.75937591    1.74655459      10
Co    -1.73979090    1.81225325    0.02645189      11
Cr     1.79585599   -1.75824979    0.01667127      12
Cr     1.82999509    1.74309778    0.02552204      13
Cr     0.02797481    1.78432556   -1.74474741      14
Cr    -0.00986554    1.71833921    1.76161932      15
Ni     1.80107609   -0.00358237   -1.76544665      16
Cr     1.77831116    0.00588197    1.74264509      17
Co     0.00000000    0.00000000    0.00000000      18
          18
Lattice="  24.8920   0.0000   0.0000   0.0000  24.8920   0.0000   0.0000   0.0000  24.8920 " ConfE="      -5943.7185" DelE="          1.3874"
Ni    -3.46202055   -0.01589654    0.03933347       1
Ni    -0.02952205   -3.56300348    0.01091788       2
Co     3.51774113   -0.01669714    0.03234658       3
Ni     0.05329103    3.58510974    0.02700441       4
Co     0.05851035    0.00666193   -3.50340791       5
Ni     0.03857871   -0.01364215    3.59933643       6
Cr    -1.65810614    0.08189452   -1.81787405       7
Ni    -1.76261718    0.01955246    1.91287711       8
Ni     0.04005909   -1.92211979   -1.89416990       9
Co     0.10917077   -1.79701144    1.84988723      10
Co    -1.67335390    1.72344099    0.01965046      11
Cr     1.73896033   -1.92224184    0.05478993      12
Cr     1.87003022    1.88928676    0.09756987      13
Cr    -0.05145396    1.87569618   -1.71852202      14
Cr    -0.01381678    1.62609545    1.63245301      15
Ni     1.20600149    0.00317192   -1.12417214      16
Cr     1.70626159   -0.03356071    1.64588409      17
Co    -1.02805170   -1.04427720   -0.03154038      18
          18
Lattice="  24.8920   0.0000   0.0000   0.0000  24.8920   0.0000   0.0000   0.0000  24.8920 " ConfE="      -5944.7048" DelE="          0.4011"
Ni    -3.51004892    0.00287132    0.03432180       1
Ni     0.07148098   -3.53828238    0.00583296       2
Co     3.52338537   -0.00154813   -0.00017906       3
Ni     0.08472258    3.51062055   -0.00777541       4
Co     0.07399596    0.02578955   -3.49235704       5
Ni     0.03805807   -0.01654259    3.58193209       6
Cr    -1.73004984    0.08390041   -1.74638343       7
Ni    -1.71545619   -0.00805097    1.78738859       8
Ni     0.08489881   -1.74805356   -1.76413638       9
Co     0.11662875   -1.76899047    1.76671895      10
Co    -1.72215282    1.78682392    0.01050639      11
Cr     1.86947534   -1.69518200   -0.04897917      12
Cr     1.84988498    1.70074491   -0.02512689      13
Cr     0.08631182    1.76912561   -1.77370404      14
Cr     0.01962856    1.75462990    1.77697932      15
Ni     0.08255979    0.00071122   -0.02969589      16
Cr     1.81697921    0.03457399    1.78602625      17
Co    -1.68829221   -1.77510375   -0.01926080      18
