          18
Lattice="  24.8920   0.0000   0.0000   0.0000  24.8920   0.0000   0.0000   0.0000  24.8920 " ConfE="      -5938.0305" DelE="          0.0000"
Ni    -0.12769452   -0.01273540   -3.42080857       1
Cr     3.28106624   -0.02681942    0.06404471       2
Co    -0.18018366   -0.01304919    3.67517523       3
Ni    -3.72146646   -0.00531646    0.13945376       4
Ni    -0.16628569   -3.56630077    0.12125238       5
Co    -0.13909901    3.49873921    0.07170827       6
Co    -0.17769952   -1.78147890   -1.65504579       7
Co    -0.09751833    1.70643357   -1.67564324       8
Co     1.58775072   -1.74322302    0.09050290       9
Co     1.61927336    1.70531280    0.09136582      10
Co    -1.94011713   -0.04481642   -1.64338827      11
Cr     1.57615773   -0.01409966    1.94198064      12
Cr    -1.81196012    0.02490122    1.84009389      13
Cr    -1.89151003   -1.74202764    0.07665073      14
Ni    -1.93904891    1.73579698    0.09342364      15
Ni    -0.15290442   -1.80136248    1.88879662      16
Co    -0.14812887    1.75927405    1.87380431      17
Cr     0.00000000    0.00000000    0.00000000      18
          18
Lattice="  24.8920   0.0000   0.0000   0.0000  24.8920   0.0000   0.0000   0.0000  24.8920 " ConfE="      -5937.5114" DelE="          0.5191"
Ni    -0.15496239   -0.01987011   -3.40353310       1
Cr     3.33827355   -0.03174600    0.09439216       2
Co    -0.17438324   -0.01276695    3.67518125       3
Ni    -3.71706523    0.00172243    0.13734868       4
Ni    -0.17485148   -3.60389949    0.12940693       5
Co    -0.15120417    3.55974412    0.09236154       6
Co    -0.20743170   -1.92324652   -1.70032803       7
Co    -0.16820919    1.82526593   -1.68043785       8
Co     1.60780234   -1.85970637    0.13803952       9
Co     1.60446236    1.77749235    0.11731197      10
Co    -1.87600816   -0.05345400   -1.60452975      11
Cr     1.53915594   -0.00457099    1.86843729      12
Cr    -1.69362610    0.00126661    1.73510738      13
Cr    -1.81392822   -1.67958885    0.03640639      14
Ni    -1.92327829    1.73990269    0.09355195      15
Ni    -0.13157988   -1.80491654    1.86909416      16
Co    -0.13993302    1.72837560    1.83974768      17
Cr     0.74707835   -0.06926702   -0.89020828      18
          18
Lattice="  24.8920   0.0000   0.0000   0.0000  24.8920   0.0000   0.0000   0.0000  24.8920 " ConfE="      -5938.1123" DelE="         -0.0818"
Ni    -0.18028169   -0.01376127   -3.46161410       1
Cr     3.39464317   -0.03246629    0.09987722       2
Co    -0.19096206   -0.01274298    3.69294629       3
Ni    -3.73485292   -0.00085301    0.14402342       4
Ni    -0.17389392   -3.58830021    0.12955550       5
Co    -0.14902411    3.52399052    0.07765702       6
Co    -0.19968595   -1.78631895   -1.63183700       7
Co    -0.13555324    1.69562992   -1.64475455       8
Co     1.57008504   -1.72616525    0.11096085       9
Co     1.58737291    1.68472261    0.11822735      10
Co    -1.90425372   -0.05863277   -1.60669314      11
Cr     1.51804678    0.00240091    1.83716618      12
Cr    -1.72888758   -0.00003813    1.75748946      13
Cr    -1.88457137   -1.72574227    0.06195996      14
Ni    -1.94389115    1.73026329    0.10101124      15
Ni    -0.15733579   -1.80347223    1.87717320      16
Co    -0.16025831    1.73643004    1.86544896      17
Cr     1.51844019   -0.04218490   -1.58730470      18
