          78
Lattice="  35.4000   0.0000   0.0000   0.0000  35.4000   0.0000   0.0000   0.0000  35.4000 " ConfE="     -17786.8827" DelE="          0.0000"
Ni     0.00002774    5.30713340   -1.75917706       1
Ni     0.00001696    1.75932361   -5.30718808       2
Ni     0.00002109    3.51820688   -3.51815603       3
Ni    -5.31370298    1.75909817    0.01151422       4
Ni     5.31373772    1.75906554    0.01153142       5
Ni    -5.31362042   -0.01142716   -1.75897551       6
Ni     5.31364804   -0.01145209   -1.75895353       7
Ni     0.00000535   -1.77989386    5.32063729       8
Ni     0.00000022   -5.31970572    1.78094215       9
Ni    -1.77040941   -0.01035508    5.32085191      10
Ni     1.77042856   -0.01036347    5.32085046      11
Ni     1.77042846   -5.31997880    0.01127401      12
Ni    -1.77042675   -5.31998171    0.01126946      13
Ni     0.00000042   -5.31986342   -1.75852579      14
Ni     0.00001349    1.75926346    5.32041256      15
Ni    -5.31034080   -0.00997612    1.77986061      16
Ni     5.31036929   -0.01000062    1.77987072      17
Ni     5.31034911   -1.77926505    0.01039933      18
Ni    -5.31032700   -1.77925005    0.01038404      19
Ni     0.00002500    5.29349016    1.77533015      20
Ni     0.00000668   -1.77560554   -5.29381344      21
Ni     1.76835241    5.29512609    0.00779663      22
Ni    -1.76830027    5.29514017    0.00778983      23
Ni    -1.76816949   -0.00795189   -5.29534441      24
Ni     1.76819225   -0.00796100   -5.29533369      25
Ni     0.00000021   -3.54763389    3.54872049      26
Ni     0.00001731    3.52903030    3.55114709      27
Ni     0.00000085   -3.55118336   -3.52904559      28
Ni     3.53983402   -0.00972716    3.54916316      29
Ni    -3.53981482   -0.00970989    3.54916082      30
Ni    -3.53969760   -3.54840995    0.01046162      31
Ni     3.53970354   -3.54841245    0.01047156      32
Ni    -3.53903867    3.52630054    0.00811323      33
Ni     3.53907713    3.52627350    0.00812645      34
Ni     3.53896465   -0.00831429   -3.52649282      35
Ni    -3.53894470   -0.00829623   -3.52651206      36
Ni     1.76193279    3.51885647   -1.75932385      37
Ni    -1.76189514    3.51887033   -1.75933303      38
Ni    -1.76176787    1.75909942   -3.51905168      39
Ni     1.76179340    1.75908649   -3.51904101      40
Ni    -1.76972374   -1.77852065    3.54897513      41
Ni     1.76972764   -1.77852632    3.54897597      42
Ni     1.76962685   -3.54809830    1.77951362      43
Ni    -1.76962936   -3.54809688    1.77951083      44
Ni    -1.77125887    1.75907758    3.55138749      45
Ni     1.77128037    1.75906575    3.55138887      46
Ni     1.77106628   -3.55111064   -1.75864068      47
Ni    -1.77106834   -3.55110962   -1.75864828      48
Ni     3.53935132   -1.77835138    1.77903629      49
Ni    -3.53934302   -1.77834028    1.77902965      50
Ni    -3.53743935    1.75908764    1.77630670      51
Ni     3.53746441    1.75906400    1.77631516      52
Ni     3.53725341   -1.77613068   -1.75889728      53
Ni    -3.53724515   -1.77612012   -1.75891279      54
Ni     1.76834203    3.52593574    1.77695974      55
Ni    -1.76830865    3.52594953    1.77695508      56
Ni    -1.76817878   -1.77714573   -3.52617777      57
Ni     1.76818420   -1.77715099   -3.52616771      58
Ni    -3.55132149    1.75897958   -1.75922294      59
Ni     3.55134721    1.75895475   -1.75920568      60
Ni     0.00000000    0.00000000    0.00000000      61
Ni     0.00001606    3.51763482   -0.00053324      62
Ni     0.00000506    0.00002310   -3.51817408      63
Ni     1.76192043    1.75882579    0.00067819      64
Ni    -1.76190287    1.75883887    0.00066970      65
Ni    -1.76177952   -0.00086690   -1.75911440      66
Ni     1.76178509   -0.00087650   -1.75910541      67
Ni    -3.53910705   -0.00821561    0.00848385      68
Ni     3.53911975   -0.00823463    0.00849648      69
Ni     0.00000346   -0.01078987    3.55164067      70
Ni    -0.00000410   -3.55090700    0.01168904      71
Ni    -0.00000301   -1.77524464    1.77605249      72
Ni    -1.76835552   -0.00796571    1.77739075      73
Ni     1.76836016   -0.00797570    1.77739499      74
Ni     1.76836999   -1.77695015    0.00834455      75
Ni    -1.76837410   -1.77694435    0.00833864      76
Ni     0.00000723    1.75896529    1.78894132      77
Ni    -0.00000252   -1.78901510   -1.75889828      78
          78
Lattice="  35.4000   0.0000   0.0000   0.0000  35.4000   0.0000   0.0000   0.0000  35.4000 " ConfE="     -17785.8614" DelE="          1.0213"
Ni    -0.00009620    5.28728870   -1.74971774       1
Ni     0.00012130    1.75082605   -5.28686645       2
Ni     0.00001106    3.49284420   -3.49212715       3
Ni    -5.33142726    1.76543227    0.01786627       4
Ni     5.33124627    1.76563411    0.01825558       5
Ni    -5.33142230   -0.01726168   -1.76508121       6
Ni     5.33130852   -0.01701911   -1.76464250       7
Ni    -0.00029424   -1.77428848    5.31457286       8
Ni    -0.00013538   -5.31338335    1.77493166       9
Ni    -1.76970582   -0.00813921    5.31546573      10
Ni     1.76908037   -0.00805931    5.31543656      11
Ni     1.76931174   -5.31425765    0.00863521      12
Ni    -1.76944188   -5.31433424    0.00849329      13
Ni     0.00002857   -5.31453962   -1.75709991      14
Ni    -0.00035315    1.75747071    5.31563545      15
Ni    -5.33485633   -0.01631602    1.79417943      16
Ni     5.33455868   -0.01607511    1.79444266      17
Ni     5.33462091   -1.79326936    0.01703792      18
Ni    -5.33484357   -1.79354770    0.01665507      19
Ni    -0.00027450    5.27674890    1.76162038      20
Ni     0.00017104   -1.76046692   -5.27643435      21
Ni     1.76773972    5.27818898    0.00682415      22
Ni    -1.76807232    5.27815689    0.00666630      23
Ni    -1.76784855   -0.00562942   -5.27789074      24
Ni     1.76810786   -0.00554722   -5.27777658      25
Ni    -0.00024567   -3.53417211    3.53507861      26
Ni    -0.00036620    3.50879836    3.52951284      27
Ni     0.00010576   -3.52844819   -3.50855796      28
Ni     3.54172536   -0.01264295    3.54611127      29
Ni    -3.54225076   -0.01283481    3.54603163      30
Ni    -3.54202588   -3.54509312    0.01305073      31
Ni     3.54181073   -3.54488929    0.01334878      32
Ni    -3.58864353    3.55729231    0.01561791      33
Ni     3.58834585    3.55740168    0.01592493      34
Ni     3.58859169   -0.01460543   -3.55673170      35
Ni    -3.58855267   -0.01480348   -3.55704230      36
Ni     1.77393808    3.49301857   -1.74515338      37
Ni    -1.77411340    3.49289342   -1.74531466      38
Ni    -1.77413838    1.74614866   -3.49261499      39
Ni     1.77422437    1.74628316   -3.49248881      40
Ni    -1.76617703   -1.76838489    3.53580444      41
Ni     1.76559119   -1.76825122    3.53583202      42
Ni     1.76564686   -3.53478844    1.76893626      43
Ni    -1.76604376   -3.53492736    1.76884934      44
Ni    -1.76837704    1.75387305    3.53093381      45
Ni     1.76768425    1.75393886    3.53099059      46
Ni     1.76799952   -3.52981030   -1.75354836      47
Ni    -1.76802924   -3.52993421   -1.75375768      48
Ni     3.54675072   -1.77870686    1.77965881      49
Ni    -3.54719305   -1.77895317    1.77944553      50
Ni    -3.58891866    1.76294788    1.80999386      51
Ni     3.58843220    1.76313903    1.81023892      52
Ni     3.58860368   -1.80896802   -1.76242374      53
Ni    -3.58871197   -1.80921661   -1.76280459      54
Ni     1.77630131    3.52415068    1.77706445      55
Ni    -1.77689703    3.52407836    1.77691749      56
Ni    -1.77654793   -1.77591167   -3.52396082      57
Ni     1.77669234   -1.77580174   -3.52375744      58
Ni    -3.60391359    1.77047387   -1.76996942      59
Ni     3.60377568    1.77068150   -1.76962433      60
Ni    -0.00015931    0.87406945   -0.87338553      61
Ni    -0.00022341    3.45209637   -0.02579056      62
Ni     0.00007362    0.02696740   -3.45178935      63
Ni     1.93238874    1.79201696    0.04498116      64
Ni    -1.93285727    1.79184239    0.04478515      65
Ni    -1.93268163   -0.04398608   -1.79166494      66
Ni     1.93255911   -0.04378570   -1.79144198      67
Ni    -3.60405807   -0.02249159    0.02283813      68
Ni     3.60370794   -0.02221069    0.02321088      69
Ni    -0.00036396   -0.00251671    3.54003885      70
Ni    -0.00011490   -3.53899232    0.00281486      71
Ni    -0.00029490   -1.74452676    1.74517553      72
Ni    -1.77468012    0.00186922    1.74576547      73
Ni     1.77400355    0.00201633    1.74589019      74
Ni     1.77406123   -1.74475219   -0.00145946      75
Ni    -1.77439250   -1.74492490   -0.00165118      76
Ni    -0.00037268    1.72121716    1.70499903      77
Ni    -0.00003872   -1.70394849   -1.72106638      78
          78
Lattice="  35.4000   0.0000   0.0000   0.0000  35.4000   0.0000   0.0000   0.0000  35.4000 " ConfE="     -17786.8829" DelE="         -0.0002"
Ni     0.00003412    5.30040374   -1.75843500       1
Ni     0.00003544    1.75977940   -5.29906402       2
Ni     0.00003452    3.52483285   -3.52349247       3
Ni    -5.31190082    1.75975888    0.01205291       4
Ni     5.31196890    1.75975662    0.01205773       5
Ni    -5.31190877   -0.01071238   -1.75842370       6
Ni     5.31197786   -0.01071242   -1.75841701       7
Ni     0.00003051   -1.78122476    5.32334377       8
Ni     0.00003208   -5.32192718    1.78261876       9
Ni    -1.77065181   -0.01064165    5.32329691      10
Ni     1.77071275   -0.01064175    5.32329650      11
Ni     1.77072157   -5.32189449    0.01201641      12
Ni    -1.77065587   -5.32189620    0.01201438      13
Ni     0.00003398   -5.32178205   -1.75853932      14
Ni     0.00003063    1.75989265    5.32316836      15
Ni    -5.31179278   -0.01070939    1.78264603      16
Ni     5.31185961   -0.01070967    1.78264927      17
Ni     5.31186799   -1.78128440    0.01206860      18
Ni    -5.31180014   -1.78128592    0.01206346      19
Ni     0.00003233    5.30047288    1.78250651      20
Ni     0.00003545   -1.78116690   -5.29914709      21
Ni     1.77082672    5.30044299    0.01208977      22
Ni    -1.77076081    5.30044448    0.01208770      23
Ni    -1.77076774   -0.01074832   -5.29911390      24
Ni     1.77083786   -0.01074851   -5.29911144      25
Ni     0.00003071   -3.54615081    3.54755536      26
Ni     0.00003062    3.52481173    3.54759450      27
Ni     0.00003403   -3.54624138   -3.52348276      28
Ni     3.53611055   -0.01070375    3.54770971      29
Ni    -3.53604753   -0.01070382    3.54770952      30
Ni    -3.53605359   -3.54633047    0.01206456      31
Ni     3.53611954   -3.54632767    0.01206803      32
Ni    -3.53595627    3.52483844    0.01210417      33
Ni     3.53602210    3.52483580    0.01210813      34
Ni     3.53603685   -0.01076797   -3.52350654      35
Ni    -3.53596835   -0.01076752   -3.52351179      36
Ni     1.76779303    3.52622752   -1.75541153      37
Ni    -1.76772616    3.52622911   -1.75541380      38
Ni    -1.76772975    1.75674793   -3.52490071      39
Ni     1.76779802    1.75674739   -3.52489776      40
Ni    -1.76766905   -1.77817306    3.54904295      41
Ni     1.76773039   -1.77817216    3.54904336      42
Ni     1.76773204   -3.54765063    1.77955265      43
Ni    -1.76766907   -3.54765184    1.77955158      44
Ni    -1.76775643    1.75669733    3.54902489      45
Ni     1.76781810    1.75669640    3.54902516      46
Ni     1.76782874   -3.54765980   -1.75535413      47
Ni    -1.76776199   -3.54766098   -1.75535669      48
Ni     3.53753340   -1.77828625    1.77965718      49
Ni    -3.53746924   -1.77828728    1.77965478      50
Ni    -3.53741008    1.75684363    1.77950500      51
Ni     3.53747422    1.75684214    1.77950734      52
Ni     3.53748674   -1.77815680   -1.75550419      53
Ni    -3.53741982   -1.77815787   -1.75550884      54
Ni     1.76766570    3.52614569    1.77951757      55
Ni    -1.76760250    3.52614705    1.77951613      56
Ni    -1.76761057   -1.77817667   -3.52482416      57
Ni     1.76767858   -1.77817629   -3.52482144      58
Ni    -3.53736222    1.75675380   -1.75542282      59
Ni     3.53742941    1.75675233   -1.75541822      60
Ni     0.00003313    1.74942008   -1.74809641      61
Ni     0.00003237    3.53822836    0.01202293      62
Ni     0.00003396   -0.01069148   -3.53690703      63
Ni     1.76032683    1.74931772    0.01207014      64
Ni    -1.76026342    1.74931842    0.01206877      65
Ni    -1.76026871   -0.01073729   -1.74799779      66
Ni     1.76033372   -0.01073685   -1.74799547      67
Ni    -3.54942004   -0.01072983    0.01206912      68
Ni     3.54948525   -0.01073015    0.01207289      69
Ni     0.00002996   -0.01076759    3.56102033      70
Ni     0.00003175   -3.55964443    0.01212398      71
Ni     0.00003066   -1.77061760    1.77198445      72
Ni    -1.76048357   -0.01073783    1.77224080      73
Ni     1.76054521   -0.01073801    1.77224204      74
Ni     1.76054292   -1.77088114    0.01208441      75
Ni    -1.76047956   -1.77088149    0.01208250      76
Ni     0.00003088    1.74925071    1.77220172      77
Ni     0.00003270   -1.77085764   -1.74792366      78
