          18
Lattice="  35.4000   0.0000   0.0000   0.0000  35.4000   0.0000   0.0000   0.0000  35.4000 " ConfE="     -17786.8827" DelE="          0.0000"
Ni     0.00642038    3.53639886    0.00711252       1
Ni    -3.52368870   -0.00000011   -0.00000231       2
Ni     0.00651285   -3.53584619    0.00756994       3
Ni     3.55177275    0.00027983    0.01070078       4
Ni    -0.00016816    0.00029437   -3.51981864       5
Ni     0.00942412    0.00026272    3.55066104       6
Ni     0.00000059    1.76013127   -1.76013005       7
Ni     0.00642046    1.76725248    1.77625744       8
Ni    -1.76184400    1.75857658   -0.00155728       9
Ni    -1.76184500    0.00026660    1.78824834      10
Ni     1.77706562    1.76751697    0.00738013      11
Ni    -1.76184491   -1.75892655   -0.00065167      12
Ni     1.77712297   -1.76700638    0.00772671      13
Ni     1.78928906    0.00019238   -1.75993888      14
Ni     1.77550603    0.00027180    1.77554027      15
Ni    -0.00016830   -1.75968895   -1.75983508      16
Ni     0.00642269   -1.76682131    1.77666291      17
Ni     0.00000000    0.00000000    0.00000000      18
          18
Lattice="  35.4000   0.0000   0.0000   0.0000  35.4000   0.0000   0.0000   0.0000  35.4000 " ConfE="     -17785.8602" DelE="          1.0226"
Ni     0.02003297    3.60334402    0.02183239       1
Ni    -3.45590776    0.00060724   -0.02646377       2
Ni     0.02012089   -3.60199879    0.02206584       3
Ni     3.53787217    0.00074090    0.00190228       4
Ni    -0.02803709    0.00069445   -3.45324293       5
Ni    -0.00004630    0.00069776    3.53897511       6
Ni     0.04217729    1.93277380   -1.79291870       7
Ni    -0.00455490    1.77392484    1.74427976       8
Ni    -1.79520604    1.93267812    0.04360515       9
Ni    -1.72488399    0.00062854    1.70417083      10
Ni     1.74323958    1.77422143   -0.00272861      11
Ni    -1.79514039   -1.93142008    0.04376898      12
Ni     1.74326916   -1.77280549   -0.00261909      13
Ni     1.70294961    0.00070024   -1.72263095      14
Ni     1.74313551    0.00070474    1.74456878      15
Ni     0.04222673   -1.93146565   -1.79279957      16
Ni    -0.00449394   -1.77261932    1.74446854      17
Ni    -0.87640471    0.00063423   -0.87460526      18
          18
Lattice="  35.4000   0.0000   0.0000   0.0000  35.4000   0.0000   0.0000   0.0000  35.4000 " ConfE="     -17786.8827" DelE="         -0.0000"
Ni     0.00951187    3.55182008    0.01163713       1
Ni    -3.53901694    0.00072767    0.01161680       2
Ni     0.00953020   -3.55030672    0.01173152       3
Ni     3.55794189    0.00077416    0.01147466       4
Ni     0.00951453    0.00075905   -3.53622934       5
Ni     0.00923429    0.00076557    3.55955246       6
Ni     0.00972945    1.76237100   -1.74808085       7
Ni     0.00943964    1.76232822    1.77132008       8
Ni    -1.75066234    1.76245382    0.01180884       9
Ni    -1.74989739    0.00073546    1.77070154      10
Ni     1.76965413    1.76247311    0.01159963      11
Ni    -1.75065953   -1.76099222    0.01186414      12
Ni     1.76966060   -1.76095320    0.01164936      13
Ni     1.76894288    0.00075755   -1.74740269      14
Ni     1.76875251    0.00075960    1.77062945      15
Ni     0.00973616   -1.76086662   -1.74803703      16
Ni     0.00944942   -1.76084198    1.77139759      17
Ni    -1.74922306    0.00073282   -1.74675020      18
