          18
Lattice="  35.4000   0.0000   0.0000   0.0000  35.4000   0.0000   0.0000   0.0000  35.4000 " ConfE="     -17786.8830" DelE="          0.0000"
Ni     0.00000000   -0.00000000    3.52038005       1
Ni     3.52037998   -0.00000000   -0.00000000       2
Ni    -0.01041070   -0.00000000   -3.55122470       3
Ni    -3.55122470   -0.00000000   -0.01041070       4
Ni    -0.00737606   -3.53711235   -0.00737606       5
Ni    -0.00737606    3.53711242   -0.00737606       6
Ni     0.00000000   -1.76019003    1.76019003       7
Ni     0.00000000    1.76019003    1.76019003       8
Ni     1.76018995   -1.76019003   -0.00000000       9
Ni     1.76018995    1.76019003    0.00000000      10
Ni    -1.78893364   -0.00000000    1.76019003      11
Ni     1.76018995   -0.00000000   -1.78893364      12
Ni    -1.77553205   -0.00000000   -1.77553205      13
Ni    -1.77692240   -1.76756608   -0.00737606      14
Ni    -1.77692240    1.76756608   -0.00737606      15
Ni    -0.00737606   -1.76756608   -1.77692240      16
Ni    -0.00737606    1.76756608   -1.77692240      17
Ni     0.00000000    0.00000000    0.00000000      18
          18
Lattice="  35.4000   0.0000   0.0000   0.0000  35.4000   0.0000   0.0000   0.0000  35.4000 " ConfE="     -17785.8607" DelE="          1.0223"
Ni     0.02703699    0.00003143    3.45371204       1
Ni     3.45397459    0.00007183    0.02671120       2
Ni    -0.00123488    0.00006179   -3.53886228       3
Ni    -3.53856476    0.00002101   -0.00153538       4
Ni    -0.02128704   -3.60302421   -0.02162603       5
Ni    -0.02137019    3.60313038   -0.02163438       6
Ni    -0.04316510   -1.93219387    1.79322323       7
Ni    -0.04322764    1.93228750    1.79320858       8
Ni     1.79356646   -1.93221162   -0.04355319       9
Ni     1.79352092    1.93235525   -0.04356759      10
Ni    -1.70368977    0.00003227    1.72289137      11
Ni     1.72323410    0.00008008   -1.70406719      12
Ni    -1.74396087    0.00004384   -1.74428725      13
Ni    -1.74403296   -1.77360423    0.00294795      14
Ni    -1.74409374    1.77368017    0.00293475      15
Ni     0.00330195   -1.77359698   -1.74438304      16
Ni     0.00325625    1.77373113   -1.74439706      17
Ni     0.87520902    0.00006451    0.87480002      18
          18
Lattice="  35.4000   0.0000   0.0000   0.0000  35.4000   0.0000   0.0000   0.0000  35.4000 " ConfE="     -17786.8827" DelE="          0.0003"
Ni    -0.01087706    0.00000455    3.53719683       1
Ni     3.53723886    0.00000716   -0.01092086       2
Ni    -0.01069013    0.00000624   -3.55909101       3
Ni    -3.55904626    0.00000354   -0.01073493       4
Ni    -0.01094822   -3.55112679   -0.01099506       5
Ni    -0.01095323    3.55113741   -0.01099515       6
Ni    -0.01113935   -1.76183848    1.74894390       7
Ni    -0.01114198    1.76184880    1.74894397       8
Ni     1.74899061   -1.76183792   -0.01118758       9
Ni     1.74898833    1.76185108   -0.01118768      10
Ni    -1.77006578    0.00000435    1.74829150      11
Ni     1.74833882    0.00000709   -1.77011411      12
Ni    -1.76996944    0.00000523   -1.77001569      13
Ni    -1.77082789   -1.76166964   -0.01089297      14
Ni    -1.77083112    1.76167939   -0.01089311      15
Ni    -0.01084441   -1.76166959   -1.77087652      16
Ni    -0.01084701    1.76168213   -1.77087714      17
Ni     1.74743298    0.00000619    1.74738871      18
