          18
Lattice="  35.4000   0.0000   0.0000   0.0000  35.4000   0.0000   0.0000   0.0000  35.4000 " ConfE="     -17786.8827" DelE="          0.0000"
Ni    -3.52335384   -0.00000258   -0.00000056       1
Ni     0.00016835    3.51982373    0.00029450       2
Ni     3.55181405   -0.01054246   -0.00010534       3
Ni     0.00937891   -3.55032100   -0.00040534       4
Ni     0.00647080   -0.00711243    3.53629768       5
Ni     0.00659140   -0.00713727   -3.53649227       6
Ni    -1.76167746    0.00086212    1.75911947       7
Ni    -1.76167626    0.00076145   -1.75918141       8
Ni    -0.00000272    1.75998675    1.75998065       9
Ni     0.00016843    1.75969015   -1.75983291      10
Ni    -1.76167588   -1.78821792   -0.00015583      11
Ni     1.78945727    1.75988237    0.00010482      12
Ni     1.77550599   -1.77526635   -0.00016331      13
Ni     0.00647251   -1.77631719    1.76709764      14
Ni     0.00668057   -1.77616313   -1.76740084      15
Ni     1.77716552   -0.00743179    1.76741701      16
Ni     1.77729026   -0.00732088   -1.76755798      17
Ni     0.00000000    0.00000000    0.00000000      18
          18
Lattice="  35.4000   0.0000   0.0000   0.0000  35.4000   0.0000   0.0000   0.0000  35.4000 " ConfE="     -17785.8602" DelE="          1.0225"
Ni    -3.45587984    0.02720520   -0.00028509       1
Ni    -0.02788310    3.45386353   -0.00018526       2
Ni     3.53808274   -0.00101922   -0.00031138       3
Ni     0.00007049   -3.53795340   -0.00043269       4
Ni     0.02016409   -0.02111553    3.60246150       5
Ni     0.02017983   -0.02109711   -3.60309242       6
Ni    -1.79515179   -0.04291186    1.93183329       7
Ni    -1.79511123   -0.04291787   -1.93237939       8
Ni     0.04231959    1.79355463    1.93188108       9
Ni     0.04235299    1.79348678   -1.93233505      10
Ni    -1.72481107   -1.70333077   -0.00034903      11
Ni     1.70311175    1.72328672   -0.00024104      12
Ni     1.74327382   -1.74359070   -0.00035734      13
Ni    -0.00442583   -1.74343379    1.77296045      14
Ni    -0.00440460   -1.74343011   -1.77369856      15
Ni     1.74345470    0.00349065    1.77333452      16
Ni     1.74348902    0.00348818   -1.77393817      17
Ni    -0.87639240    0.87530309   -0.00023407      18
          18
Lattice="  35.4000   0.0000   0.0000   0.0000  35.4000   0.0000   0.0000   0.0000  35.4000 " ConfE="     -17786.8827" DelE="          0.0000"
Ni    -3.53888189   -0.01071969   -0.00041473       1
Ni     0.00975071    3.53721237   -0.00038416       2
Ni     3.55811697   -0.01038246   -0.00044573       3
Ni     0.00936918   -3.55846314   -0.00048784       4
Ni     0.00973245   -0.01068718    3.55070949       5
Ni     0.00972616   -0.01070107   -3.55158366       6
Ni    -1.75044856   -0.01081356    1.76140784       7
Ni    -1.75045022   -0.01082358   -1.76224139       8
Ni     0.00986197    1.74898984    1.76129469       9
Ni     0.00985885    1.74894618   -1.76207749      10
Ni    -1.74977002   -1.76957092   -0.00044412      11
Ni     1.76900648    1.74843481   -0.00040563      12
Ni     1.76892874   -1.76957242   -0.00045945      13
Ni     0.00960728   -1.77033182    1.76115740      14
Ni     0.00960564   -1.77033490   -1.76207589      15
Ni     1.76985546   -0.01058507    1.76130205      16
Ni     1.76985827   -0.01059414   -1.76217387      17
Ni    -1.74928775    1.74791646   -0.00038701      18
