          18
Lattice="  35.4000   0.0000   0.0000   0.0000  35.4000   0.0000   0.0000   0.0000  35.4000 " ConfE="     -17786.8827" DelE="          0.0000"
Ni    -0.00000195   -0.00009828    3.51830855       1
Ni     0.00000089    3.51830718   -0.00009645       2
Ni     0.00000316   -0.01087942   -3.55126041       3
Ni     0.00000068   -3.55124528   -0.01089206       4
Ni     3.53884341   -0.00829067   -0.00829378       5
Ni    -3.53884204   -0.00829145   -0.00829941       6
Ni     1.76167466   -0.00086067    1.75912514       7
Ni    -1.76167676   -0.00086129    1.75912248       8
Ni     1.76167480    1.75912265   -0.00085842       9
Ni    -1.76167400    1.75912251   -0.00086170      10
Ni    -0.00000107   -1.78907517    1.75927947      11
Ni     0.00000175    1.75928065   -1.78907685      12
Ni     0.00000165   -1.77562647   -1.77563897      13
Ni     1.76815061   -1.77717352   -0.00797703      14
Ni    -1.76814990   -1.77717423   -0.00797999      15
Ni     1.76815030   -0.00797158   -1.77717973      16
Ni    -1.76814698   -0.00797204   -1.77718291      17
Ni     0.00000000    0.00000000    0.00000000      18
          18
Lattice="  35.4000   0.0000   0.0000   0.0000  35.4000   0.0000   0.0000   0.0000  35.4000 " ConfE="     -17785.8614" DelE="          1.0213"
Ni    -0.00002783    0.02664543    3.45268469       1
Ni    -0.00006647    3.45296129    0.02630722       2
Ni    -0.00005591   -0.00171598   -3.53912477       3
Ni    -0.00001652   -3.53880268   -0.00204002       4
Ni     3.60378079   -0.02186612   -0.02222159       5
Ni    -3.60387747   -0.02194909   -0.02223306       6
Ni     1.93255176   -0.04367075    1.79236851       7
Ni    -1.93263648   -0.04373280    1.79235118       8
Ni     1.93256811    1.79272296   -0.04407066       9
Ni    -1.93270081    1.79267836   -0.04408589      10
Ni    -0.00002820   -1.70400172    1.72199553      11
Ni    -0.00007470    1.72235315   -1.70439419      12
Ni    -0.00003862   -1.74414777   -1.74449784      13
Ni     1.77406486   -1.74448817    0.00237147      14
Ni    -1.77413121   -1.74454860    0.00235678      15
Ni     1.77405886    0.00274409   -1.74485859      16
Ni    -1.77418229    0.00269868   -1.74487389      17
Ni    -0.00005919    0.87454717    0.87413000      18
          18
Lattice="  35.4000   0.0000   0.0000   0.0000  35.4000   0.0000   0.0000   0.0000  35.4000 " ConfE="     -17786.8829" DelE="         -0.0002"
Ni     0.00000350   -0.01072603    3.53814873       1
Ni     0.00000354    3.53819654   -0.01077453       2
Ni     0.00000401   -0.01079951   -3.55972922       3
Ni     0.00000402   -3.55967845   -0.01084960       4
Ni     3.54947752   -0.01076709   -0.01081650       5
Ni    -3.54946964   -0.01076757   -0.01081697       6
Ni     1.76029004   -0.01075050    1.74924059       7
Ni    -1.76028261   -0.01075074    1.74924048       8
Ni     1.76028983    1.74928907   -0.01079956       9
Ni    -1.76028255    1.74928887   -0.01079980      10
Ni     0.00000372   -1.77087953    1.74915733      11
Ni     0.00000373    1.74920627   -1.77092939      12
Ni     0.00000396   -1.77065340   -1.77070393      13
Ni     1.76053647   -1.77091980   -0.01083248      14
Ni    -1.76052857   -1.77092025   -0.01083276      15
Ni     1.76053677   -0.01078271   -1.77097023      16
Ni    -1.76052902   -0.01078296   -1.77097053      17
Ni     0.00000344    1.74944097    1.74939276      18
