          18
Lattice="  35.4000   0.0000   0.0000   0.0000  35.4000   0.0000   0.0000   0.0000  35.4000 " ConfE="     -17786.8830" DelE="          0.0000"
Ni    -0.00000000   -3.52038005   -0.00000000       1
Ni     0.00000000    0.00000000    3.52038005       2
Ni     0.00000000    3.55122470   -0.01041070       3
Ni    -0.00000000    0.01041070   -3.55122470       4
Ni    -3.53711242    0.00737606   -0.00737606       5
Ni     3.53711242    0.00737606   -0.00737606       6
Ni    -1.76019003   -1.76019003    0.00000000       7
Ni     1.76019003   -1.76019003   -0.00000000       8
Ni    -1.76019003    0.00000000    1.76019003       9
Ni     1.76019003    0.00000000    1.76019003      10
Ni     0.00000000   -1.76019003   -1.78893364      11
Ni     0.00000000    1.78893364    1.76019003      12
Ni    -0.00000000    1.77553205   -1.77553205      13
Ni    -1.76756608    0.00737606   -1.77692240      14
Ni     1.76756608    0.00737606   -1.77692240      15
Ni    -1.76756608    1.77692240   -0.00737606      16
Ni     1.76756608    1.77692240   -0.00737606      17
Ni     0.00000000    0.00000000    0.00000000      18
          18
Lattice="  35.4000   0.0000   0.0000   0.0000  35.4000   0.0000   0.0000   0.0000  35.4000 " ConfE="     -17785.8607" DelE="          1.0223"
Ni     0.00000279   -3.45388819    0.02696016       1
Ni    -0.00004400   -0.02702614    3.45398110       2
Ni    -0.00004152    3.53851652   -0.00123414       3
Ni     0.00000056    0.00125660   -3.53862699       4
Ni    -3.60313241    0.02134720   -0.02138959       5
Ni     3.60308788    0.02136260   -0.02131556       6
Ni    -1.93228916   -1.79347425   -0.04329830       7
Ni     1.93226558   -1.79346674   -0.04324888       8
Ni    -1.93231836    0.04322490    1.79351218       9
Ni     1.93224155    0.04322813    1.79355648      10
Ni    -0.00000369   -1.72314352   -1.70380117      11
Ni    -0.00004770    1.70371862    1.72322524      12
Ni    -0.00001685    1.74393913   -1.74399167      13
Ni    -1.77370081   -0.00324623   -1.74415275      14
Ni     1.77367882   -0.00324796   -1.74410953      15
Ni    -1.77368756    1.74403083    0.00324086      16
Ni     1.77361532    1.74403283    0.00327885      17
Ni    -0.00002753   -0.87510357    0.87511463      18
          18
Lattice="  35.4000   0.0000   0.0000   0.0000  35.4000   0.0000   0.0000   0.0000  35.4000 " ConfE="     -17786.8827" DelE="          0.0003"
Ni    -0.00000177   -3.53723095   -0.01088314       1
Ni    -0.00000461    0.01088037    3.53723695       2
Ni    -0.00000419    3.55904602   -0.01069343       3
Ni    -0.00000139    0.01069466   -3.55905341       4
Ni    -3.55113781    0.01095404   -0.01095757       5
Ni     3.55113186    0.01095531   -0.01095320       6
Ni    -1.76184802   -1.74898309   -0.01114777       7
Ni     1.76184310   -1.74898243   -0.01114545       8
Ni    -1.76185084    0.01114444    1.74898597       9
Ni     1.76184302    0.01114507    1.74898824      10
Ni    -0.00000173   -1.74833083   -1.77007399      11
Ni    -0.00000466    1.77006822    1.74833471      12
Ni    -0.00000297    1.76996984   -1.76997331      13
Ni    -1.76167946    0.01084985   -1.77083806      14
Ni     1.76167464    0.01085045   -1.77083556      15
Ni    -1.76167962    1.77083078   -0.01085105      16
Ni     1.76167191    1.77083112   -0.01084877      17
Ni    -0.00000341   -1.74742691    1.74742898      18
