          18
Lattice="  35.4000   0.0000   0.0000   0.0000  35.4000   0.0000   0.0000   0.0000  35.4000 " ConfE="     -17786.8830" DelE="          0.0000"
Ni    -0.00000000    3.52038005    0.00000000       1
Ni    -3.52037998    0.00000000    0.00000000       2
Ni     0.01041070   -3.55122463    0.00000000       3
Ni     3.55122470   -0.01041070    0.00000000       4
Ni     0.00737606   -0.00737606   -3.53711242       5
Ni     0.00737606   -0.00737606    3.53711242       6
Ni    -0.00000000    1.76019003   -1.76019003       7
Ni     0.00000000    1.76019003    1.76019003       8
Ni    -1.76019003    0.00000000   -1.76019003       9
Ni    -1.76019003    0.00000000    1.76019003      10
Ni     1.78893364    1.76019003    0.00000000      11
Ni    -1.76019003   -1.78893357    0.00000000      12
Ni     1.77553205   -1.77553198    0.00000000      13
Ni     1.77692240   -0.00737606   -1.76756608      14
Ni     1.77692240   -0.00737606    1.76756608      15
Ni     0.00737606   -1.77692232   -1.76756608      16
Ni     0.00737606   -1.77692232    1.76756608      17
Ni     0.00000000    0.00000000    0.00000000      18
          18
Lattice="  35.4000   0.0000   0.0000   0.0000  35.4000   0.0000   0.0000   0.0000  35.4000 " ConfE="     -17785.8607" DelE="          1.0223"
Ni    -0.02703730    3.45371194    0.00003133       1
Ni    -3.45397504    0.02671153    0.00007188       2
Ni     0.00123441   -3.53886169    0.00006168       3
Ni     3.53856454   -0.00153524    0.00002081       4
Ni     0.02128629   -0.02162578   -3.60302436       5
Ni     0.02136988   -0.02163407    3.60313036       6
Ni     0.04316446    1.79322340   -1.93219397       7
Ni     0.04322727    1.79320880    1.93228743       8
Ni    -1.79356738   -0.04355279   -1.93221165       9
Ni    -1.79352152   -0.04356716    1.93235529      10
Ni     1.70368957    1.72289141    0.00003213      11
Ni    -1.72323478   -1.70406686    0.00008008      12
Ni     1.74396042   -1.74428670    0.00004366      13
Ni     1.74403248    0.00294822   -1.77360441      14
Ni     1.74409343    0.00293501    1.77368009      15
Ni    -0.00330263   -1.74438242   -1.77359700      16
Ni    -0.00325669   -1.74439645    1.77373098      17
Ni    -0.87520693    0.87479760    0.00006447      18
          18
Lattice="  35.4000   0.0000   0.0000   0.0000  35.4000   0.0000   0.0000   0.0000  35.4000 " ConfE="     -17786.8827" DelE="          0.0003"
Ni     0.01087700    3.53719682    0.00000453       1
Ni    -3.53723902   -0.01092079    0.00000715       2
Ni     0.01068998   -3.55909081    0.00000620       3
Ni     3.55904620   -0.01073491    0.00000349       4
Ni     0.01094805   -0.01099499   -3.55112691       5
Ni     0.01095313   -0.01099510    3.55113740       6
Ni     0.01113924    1.74894392   -1.76183851       7
Ni     0.01114190    1.74894398    1.76184879       8
Ni    -1.74899087   -0.01118751   -1.76183798       9
Ni    -1.74898854   -0.01118762    1.76185109      10
Ni     1.77006570    1.74829149    0.00000432      11
Ni    -1.74833905   -1.77011394    0.00000707      12
Ni     1.76996932   -1.77001553    0.00000518      13
Ni     1.77082779   -0.01089292   -1.76166970      14
Ni     1.77083104   -0.01089307    1.76167938      15
Ni     0.01084424   -1.77087634   -1.76166963      16
Ni     0.01084688   -1.77087697    1.76168210      17
Ni    -1.74743315    1.74738873    0.00000618      18
