          18
Lattice="  35.4000   0.0000   0.0000   0.0000  35.4000   0.0000   0.0000   0.0000  35.4000 " ConfE="     -17786.8830" DelE="          0.0000"
Ni     0.00000000    3.52038005   -0.00000000       1
Ni     3.52037998   -0.00000000   -0.00000000       2
Ni    -0.01041070   -3.55122463   -0.00000000       3
Ni    -3.55122470   -0.01041070   -0.00000000       4
Ni    -0.00737606   -0.00737606   -3.53711242       5
Ni    -0.00737606   -0.00737606    3.53711242       6
Ni     0.00000000    1.76019003   -1.76019003       7
Ni     0.00000000    1.76019003    1.76019003       8
Ni     1.76018995    0.00000000   -1.76019003       9
Ni     1.76018995   -0.00000000    1.76019003      10
Ni    -1.78893364    1.76019003   -0.00000000      11
Ni     1.76018995   -1.78893357   -0.00000000      12
Ni    -1.77553205   -1.77553198   -0.00000000      13
Ni    -1.77692240   -0.00737606   -1.76756608      14
Ni    -1.77692240   -0.00737606    1.76756608      15
Ni    -0.00737606   -1.77692232   -1.76756608      16
Ni    -0.00737606   -1.77692232    1.76756608      17
Ni     0.00000000    0.00000000    0.00000000      18
          18
Lattice="  35.4000   0.0000   0.0000   0.0000  35.4000   0.0000   0.0000   0.0000  35.4000 " ConfE="     -17785.8607" DelE="          1.0223"
Ni     0.02703679    3.45371044    0.00003182       1
Ni     3.45397373    0.02671121    0.00007238       2
Ni    -0.00123505   -3.53886188    0.00006149       3
Ni    -3.53856515   -0.00153603    0.00002068       4
Ni    -0.02128684   -0.02162588   -3.60302448       5
Ni    -0.02137076   -0.02163466    3.60313074       6
Ni    -0.04316462    1.79322330   -1.93219373       7
Ni    -0.04322762    1.79320851    1.93228790       8
Ni     1.79356710   -0.04355252   -1.93221148       9
Ni     1.79352117   -0.04356711    1.93235578      10
Ni    -1.70369093    1.72289082    0.00003229      11
Ni     1.72323407   -1.70406771    0.00008021      12
Ni    -1.74396069   -1.74428686    0.00004350      13
Ni    -1.74403275    0.00294799   -1.77360436      14
Ni    -1.74409381    0.00293456    1.77368000      15
Ni     0.00330221   -1.74438217   -1.77359697      16
Ni     0.00325618   -1.74439638    1.77373089      17
Ni     0.87519247    0.87478333    0.00006483      18
          18
Lattice="  35.4000   0.0000   0.0000   0.0000  35.4000   0.0000   0.0000   0.0000  35.4000 " ConfE="     -17786.8827" DelE="          0.0003"
Ni    -0.01087721    3.53719650    0.00000464       1
Ni     3.53723878   -0.01092101    0.00000727       2
Ni    -0.01069020   -3.55909084    0.00000615       3
Ni    -3.55904639   -0.01073508    0.00000347       4
Ni    -0.01094826   -0.01099509   -3.55112704       5
Ni    -0.01095344   -0.01099531    3.55113761       6
Ni    -0.01113947    1.74894369   -1.76183857       7
Ni    -0.01114218    1.74894372    1.76184901       8
Ni     1.74899060   -0.01118769   -1.76183808       9
Ni     1.74898823   -0.01118786    1.76185135      10
Ni    -1.77006587    1.74829124    0.00000437      11
Ni     1.74833870   -1.77011398    0.00000710      12
Ni    -1.76996951   -1.77001563    0.00000515      13
Ni    -1.77082802   -0.01089306   -1.76166980      14
Ni    -1.77083131   -0.01089327    1.76167949      15
Ni    -0.01084446   -1.77087641   -1.76166974      16
Ni    -0.01084715   -1.77087710    1.76168220      17
Ni     1.74743270    1.74738829    0.00000630      18
