          89
Lattice="  28.1697   0.0000   0.0000   0.0000  28.1697   0.0000   0.0000   0.0000  28.1697 " ConfE="      -9113.5303" DelE="          0.0000"
Ni    -0.00000000   -5.97859912    0.00000001       1
Ni     3.54582610   -2.48925961    3.54582611       2
Ni    -3.54582603   -2.48925962   -3.54582602       3
Ni    -3.54582603   -2.48925961    3.54582610       4
Ni     3.54582609   -2.48925961   -3.54582602       5
Ni     1.77808260   -4.25515856    3.54400943       6
Ni     3.54400942   -4.25515856    1.77808261       7
Ni    -1.77808254   -4.25515855    3.54400942       8
Ni     3.54400941   -4.25515855   -1.77808253       9
Ni    -3.54400936   -4.25515856   -1.77808253      10
Ni    -1.77808254   -4.25515856   -3.54400935      11
Ni    -3.54400936   -4.25515855    1.77808261      12
Ni     1.77808260   -4.25515855   -3.54400935      13
Ni     0.00000002    4.66816410   -3.61855740      14
Ni    -3.61855742    4.66816410    0.00000002      15
Ni     3.61855751    4.66816411    0.00000003      16
Ni     0.00000002    4.66816412    3.61855752      17
Ni     5.30194572    1.05268705    1.77014476      18
Ni     1.77014475    1.05268705    5.30194573      19
Ni     1.77014475    1.05268705   -5.30194563      20
Ni    -5.30194564    1.05268705    1.77014476      21
Ni    -1.77014468    1.05268704   -5.30194563      22
Ni    -5.30194564    1.05268704   -1.77014467      23
Ni     5.30194571    1.05268704   -1.77014467      24
Ni    -1.77014468    1.05268704    5.30194572      25
Ni     0.00000001   -0.72105031    5.27983572      26
Ni     5.27983571   -0.72105031    0.00000002      27
Ni    -5.27983565   -0.72105031    0.00000002      28
Ni     0.00000001   -0.72105031   -5.27983563      29
Ni    -5.27983564    2.82642445    0.00000002      30
Ni     0.00000001    2.82642445   -5.27983562      31
Ni     0.00000001    2.82642445    5.27983572      32
Ni     5.27983571    2.82642445    0.00000002      33
Ni    -1.79431148    4.60707777   -1.79431147      34
Ni     1.79431157    4.60707777    1.79431158      35
Ni     1.79431156    4.60707776   -1.79431146      36
Ni    -1.79431147    4.60707776    1.79431157      37
Ni     3.52445125    1.05268704    3.52445126      38
Ni    -3.52445118    1.05268704   -3.52445117      39
Ni     3.52445125    1.05268704   -3.52445117      40
Ni    -3.52445118    1.05268704    3.52445126      41
Ni     0.00000002    4.54676521    0.00000003      42
Ni    -3.56589127    2.81870995   -1.80995065      43
Ni    -1.80995065    2.81870995   -3.56589125      44
Ni    -3.56589126    2.81870995    1.80995074      45
Ni     1.80995073    2.81870995   -3.56589125      46
Ni     1.80995074    2.81870996    3.56589136      47
Ni     3.56589135    2.81870996    1.80995075      48
Ni    -1.80995065    2.81870995    3.56589136      49
Ni     3.56589135    2.81870995   -1.80995064      50
Ni     1.76771243   -4.21883992    0.00000001      51
Ni     0.00000000   -4.21883992    1.76771244      52
Ni     0.00000000   -4.21883992   -1.76771236      53
Ni    -1.76771237   -4.21883992    0.00000001      54
Ni     3.61855751   -2.56278996    0.00000002      55
Ni     0.00000001   -2.56278996    3.61855751      56
Ni     0.00000000   -2.56278997   -3.61855744      57
Ni    -3.61855745   -2.56278996    0.00000001      58
Ni     0.00000003    2.10537413    0.00000005      59
Ni     0.00000000    0.00000000    0.00000000      60
Ni     1.80995074   -0.71333582    3.56589136      61
Ni     3.56589135   -0.71333582    1.80995075      62
Ni    -1.80995066   -0.71333581    3.56589134      63
Ni     3.56589134   -0.71333581   -1.80995065      64
Ni    -3.56589128   -0.71333582   -1.80995065      65
Ni    -1.80995067   -0.71333582   -3.56589127      66
Ni    -3.56589128   -0.71333581    1.80995074      67
Ni     1.80995073   -0.71333581   -3.56589127      68
Ni     0.00000002   -0.86177569    2.03521970      69
Ni     2.03521970   -0.86177569    0.00000003      70
Ni    -2.03521964   -0.86177570    0.00000001      71
Ni    -0.00000000   -0.86177571   -2.03521964      72
Ni    -2.03521962    2.96714983    0.00000001      73
Ni     0.00000001    2.96714982   -2.03521960      74
Ni     0.00000002    2.96714984    2.03521973      75
Ni     2.03521972    2.96714984    0.00000003      76
Ni     0.00000001    1.05268704   -3.55370483      77
Ni    -3.55370484    1.05268704    0.00000002      78
Ni     3.55370492    1.05268704    0.00000002      79
Ni     0.00000001    1.05268704    3.55370492      80
Ni     1.79431156   -2.50170363    1.79431157      81
Ni    -1.79431149   -2.50170362    1.79431156      82
Ni     1.79431155   -2.50170362   -1.79431148      83
Ni    -1.79431150   -2.50170362   -1.79431149      84
Ni     0.00000000   -2.44139107    0.00000001      85
Ni     1.67547008    1.05268703    1.67547009      86
Ni    -1.67547006    1.05268704   -1.67547005      87
Ni     1.67547008    1.05268704   -1.67547004      88
Ni    -1.67547005    1.05268704    1.67547008      89
          89
Lattice="  28.1697   0.0000   0.0000   0.0000  28.1697   0.0000   0.0000   0.0000  28.1697 " ConfE="      -9113.3872" DelE="          0.1431"
Ni    -0.00111969   -5.98196330    0.00045909       1
Ni     3.53832576   -2.49834155    3.55186092       2
Ni    -3.54435725   -2.48494027   -3.54095895       3
Ni    -3.54977543   -2.49018083    3.54454899       4
Ni     3.54048068   -2.50064257   -3.55649826       5
Ni     1.77483100   -4.24516634    3.53460103       6
Ni     3.53694155   -4.26654344    1.79982526       7
Ni    -1.78362879   -4.25613867    3.54437315       8
Ni     3.54002657   -4.26895240   -1.80075638       9
Ni    -3.53998002   -4.24653875   -1.77077154      10
Ni    -1.77837506   -4.25078300   -3.54086358      11
Ni    -3.54099058   -4.24754274    1.77148948      12
Ni     1.77159634   -4.24358679   -3.53507586      13
Ni    -0.00204582    4.63699198   -3.58787070      14
Ni    -3.61153040    4.66227802   -0.00037718      15
Ni     3.55969788    4.60695669   -0.00057072      16
Ni    -0.00239428    4.62743529    3.57912101      17
Ni     5.30990341    1.07202724    1.78088779      18
Ni     1.76732713    1.06107567    5.30478130      19
Ni     1.76567774    1.05922737   -5.30173673      20
Ni    -5.29196206    1.05673108    1.76669585      21
Ni    -1.77410972    1.06553511   -5.30334337      22
Ni    -5.29134903    1.05731514   -1.76640534      23
Ni     5.31218352    1.07475102   -1.78367121      24
Ni    -1.77907560    1.06950126    5.31006317      25
Ni    -0.00856050   -0.71475536    5.27301437      26
Ni     5.23390443   -0.72346412   -0.00304367      27
Ni    -5.27574888   -0.70756791    0.00054992      28
Ni    -0.00549576   -0.71189173   -5.27654407      29
Ni    -5.28273081    2.82909614    0.00015668      30
Ni    -0.00143018    2.83369910   -5.29339522      31
Ni    -0.00232704    2.83780613    5.29961640      32
Ni     5.31368963    2.85328690   -0.00059160      33
Ni    -1.79620236    4.61454148   -1.79816917      34
Ni     1.77838041    4.60363726    1.78109399      35
Ni     1.78115130    4.60584344   -1.78375635      36
Ni    -1.79371676    4.61287372    1.79556828      37
Ni     3.52802403    1.07742460    3.54469936      38
Ni    -3.53743986    1.06527474   -3.53535683      39
Ni     3.52729427    1.07974746   -3.54667570      40
Ni    -3.53927122    1.06872802    3.53516474      41
Ni    -0.01737620    4.52804447   -0.00293170      42
Ni    -3.56292990    2.83396813   -1.80085680      43
Ni    -1.79438128    2.83430564   -3.55672621      44
Ni    -3.56070663    2.83109055    1.80016684      45
Ni     1.78592937    2.82101242   -3.54666312      46
Ni     1.78352397    2.82193133    3.54481427      47
Ni     3.53428982    2.82813346    1.78949330      48
Ni    -1.79236451    2.83248606    3.55242604      49
Ni     3.53428141    2.82805147   -1.78999516      50
Ni     1.77693985   -4.24023744    0.00078988      51
Ni     0.00148546   -4.24051018    1.78541363      52
Ni     0.00140382   -4.24382069   -1.78561013      53
Ni    -1.79135928   -4.25713724    0.00072057      54
Ni     3.69244439   -2.68990665    0.00026770      55
Ni    -0.00403949   -2.57187072    3.62311575      56
Ni    -0.00277922   -2.54325339   -3.59667497      57
Ni    -3.55069636   -2.49747425    0.00076798      58
Ni    -0.14219526    1.73176286   -0.02342431      59
Ni     0.37182924   -0.33507857    0.05977375      60
Ni     1.80187686   -0.71005501    3.57385005      61
Ni     3.63280566   -0.70441419    1.90957469      62
Ni    -1.86611338   -0.71014700    3.62353188      63
Ni     3.64867074   -0.70436088   -1.93044819      64
Ni    -3.53761981   -0.70483296   -1.78553867      65
Ni    -1.83719580   -0.70906108   -3.59688539      66
Ni    -3.53442319   -0.70469637    1.78556863      67
Ni     1.79097546   -0.70840280   -3.55934185      68
Ni    -0.09925599   -0.80441995    2.13779840      69
Ni     2.43885362   -0.84750812   -0.02379363      70
Ni    -1.87664214   -0.74427283   -0.00469593      71
Ni    -0.08225021   -0.78793249   -2.05066858      72
Ni    -1.98388788    2.98660621    0.00043815      73
Ni     0.00169960    2.94238527   -1.92993243      74
Ni     0.00142131    2.92688302    1.90948738      75
Ni     1.85717307    2.89738817    0.00047748      76
Ni    -0.00228741    1.08497604   -3.55945020      77
Ni    -3.53430470    1.07099157    0.00089018      78
Ni     3.60355483    1.15175187    0.00047063      79
Ni    -0.00418167    1.09619136    3.57413140      80
Ni     1.76699081   -2.43327692    1.74535693      81
Ni    -1.79000827   -2.49606454    1.78792421      82
Ni     1.77666415   -2.44891441   -1.75292365      83
Ni    -1.78994070   -2.49600730   -1.78493014      84
Ni    -0.03878811   -2.58295256   -0.00489793      85
Ni     1.71424676    1.00843208    1.69746633      86
Ni    -1.74327000    1.07079171   -1.75321562      87
Ni     1.71266773    1.00669822   -1.68417703      88
Ni    -1.72803251    1.06147582    1.74603261      89
          89
Lattice="  28.1697   0.0000   0.0000   0.0000  28.1697   0.0000   0.0000   0.0000  28.1697 " ConfE="      -9113.5301" DelE="          0.0002"
Ni    -0.01396656   -5.98660091    0.00009096       1
Ni     3.52532248   -2.51680930    3.56601322       2
Ni    -3.54804819   -2.48404733   -3.54381787       3
Ni    -3.54826278   -2.48419071    3.54412683       4
Ni     3.52547329   -2.51695915   -3.56612250       5
Ni     1.75919676   -4.23099044    3.52434288       6
Ni     3.52564429   -4.27340536    1.81071122       7
Ni    -1.78233053   -4.25204036    3.54564448       8
Ni     3.52574811   -4.27345525   -1.81071845       9
Ni    -3.54766515   -4.24999124   -1.77757304      10
Ni    -1.78218809   -4.25193189   -3.54539817      11
Ni    -3.54775813   -4.25005692    1.77784824      12
Ni     1.75928221   -4.23097888   -3.52425914      13
Ni    -0.00545159    4.59642403   -3.54419425      14
Ni    -3.56327748    4.61826944    0.00010132      15
Ni     3.53232259    4.57274540    0.00000832      16
Ni    -0.00554401    4.59645567    3.54430152      17
Ni     5.31321302    1.08699120    1.79403259      18
Ni     1.75863008    1.06358686    5.30214827      19
Ni     1.75873950    1.06356966   -5.30206312      20
Ni    -5.27976328    1.05615464    1.76236348      21
Ni    -1.77958188    1.07391581   -5.30639827      22
Ni    -5.27968955    1.05614590   -1.76208563      23
Ni     5.31326842    1.08705064   -1.79411709      24
Ni    -1.77982552    1.07401529    5.30668635      25
Ni    -0.01492099   -0.70635577    5.28011495      26
Ni     5.25343500   -0.70769906   -0.00010339      27
Ni    -5.27197299   -0.70578806    0.00016269      28
Ni    -0.01472509   -0.70634335   -5.28001982      29
Ni    -5.28300938    2.82220528    0.00011634      30
Ni    -0.00525347    2.83693221   -5.30287761      31
Ni    -0.00538569    2.83707713    5.30308796      32
Ni     5.37331842    2.91019072   -0.00004795      33
Ni    -1.78033149    4.60014525   -1.78055907      34
Ni     1.75853971    4.59513585    1.77036059      35
Ni     1.75860010    4.59512445   -1.77028988      36
Ni    -1.78039024    4.60017412    1.78073523      37
Ni     3.52475485    1.10330173    3.56619882      38
Ni    -3.54873458    1.07206417   -3.54427260      39
Ni     3.52490126    1.10342065   -3.56629625      40
Ni    -3.54895097    1.07216342    3.54457418      41
Ni    -0.01549548    4.57320793    0.00007331      42
Ni    -3.54924094    2.83814268   -1.77847600      43
Ni    -1.78331012    2.83965788   -3.54620643      44
Ni    -3.54934313    2.83821440    1.77870910      45
Ni     1.75867685    2.81777701   -3.52462049      46
Ni     1.75860164    2.81781189    3.52471715      47
Ni     3.52452242    2.85848906    1.80961486      48
Ni    -1.78346881    2.83976987    3.54645529      49
Ni     3.52460702    2.85848134   -1.80957266      50
Ni     1.75903228   -4.26018580    0.00003014      51
Ni    -0.00645351   -4.27126256    1.80910432      52
Ni    -0.00638082   -4.27130265   -1.80898830      53
Ni    -1.85421586   -4.32329677    0.00012969      54
Ni     3.67503446   -2.74518500   -0.00000887      55
Ni    -0.00692502   -2.51649599    3.56626040      56
Ni    -0.00672388   -2.51627834   -3.56587241      57
Ni    -3.51197875   -2.47324520    0.00016685      58
Ni    -0.15712370    1.33250542    0.00001438      59
Ni     0.70751287   -0.70046387    0.00082739      60
Ni     1.75885017   -0.70651898    3.55398259      61
Ni     3.67307900   -0.70632193    2.03530984      62
Ni    -1.85653748   -0.70600226    3.61880235      63
Ni     3.67352723   -0.70636712   -2.03587887      64
Ni    -3.51231757   -0.70560410   -1.76759059      65
Ni    -1.85596386   -0.70598246   -3.61817197      66
Ni    -3.51236658   -0.70561598    1.76794170      67
Ni     1.75897014   -0.70653093   -3.55386685      68
Ni    -0.15558534   -0.70710479    2.03548136      69
Ni     2.81290593   -0.71113889   -0.00049551      70
Ni    -1.73455602   -0.70510794    0.00020974      71
Ni    -0.15497811   -0.70716419   -2.03436857      72
Ni    -1.85838945    2.91370166    0.00010693      73
Ni    -0.00765808    2.86036491   -1.81077985      74
Ni    -0.00774067    2.86034535    1.81091113      75
Ni     1.75858179    2.84731422    0.00004469      76
Ni    -0.00733499    1.10321223   -3.56559821      77
Ni    -3.51267512    1.06216964    0.00015270      78
Ni     3.67168932    1.32633338    0.00007223      79
Ni    -0.00752933    1.10345267    3.56601099      80
Ni     1.75979218   -2.38180007    1.67547464      81
Ni    -1.79512678   -2.50021486    1.79416849      82
Ni     1.75994472   -2.38178882   -1.67533142      83
Ni    -1.79505832   -2.50013041   -1.79389215      84
Ni    -0.15349624   -2.73746511   -0.00000776      85
Ni     1.75847107    0.96918673    1.67579004      86
Ni    -1.79533279    1.08826590   -1.79439905      87
Ni     1.75865101    0.96914701   -1.67561793      88
Ni    -1.79544562    1.08838845    1.79470210      89
