          89
Lattice="  28.1697   0.0000   0.0000   0.0000  28.1697   0.0000   0.0000   0.0000  28.1697 " ConfE="      -9113.5303" DelE="          0.0000"
Ni    -0.00000001    5.97859916   -0.00000003       1
Ni     3.54582607    2.48925964    3.54582606       2
Ni    -3.54582604    2.48925962   -3.54582605       3
Ni    -3.54582604    2.48925963    3.54582605       4
Ni     3.54582606    2.48925963   -3.54582605       5
Ni     1.77808258    4.25515860    3.54400938       6
Ni     3.54400939    4.25515860    1.77808257       7
Ni    -1.77808255    4.25515859    3.54400937       8
Ni     3.54400939    4.25515859   -1.77808256       9
Ni    -3.54400936    4.25515858   -1.77808256      10
Ni    -1.77808255    4.25515858   -3.54400937      11
Ni    -3.54400936    4.25515858    1.77808256      12
Ni     1.77808258    4.25515858   -3.54400937      13
Ni    -0.00000003   -4.66816409   -3.61855749      14
Ni    -3.61855748   -4.66816409   -0.00000004      15
Ni     3.61855748   -4.66816409   -0.00000003      16
Ni    -0.00000002   -4.66816409    3.61855746      17
Ni     5.30194569   -1.05268708    1.77014471      18
Ni     1.77014473   -1.05268708    5.30194567      19
Ni     1.77014472   -1.05268708   -5.30194568      20
Ni    -5.30194567   -1.05268708    1.77014471      21
Ni    -1.77014471   -1.05268709   -5.30194568      22
Ni    -5.30194567   -1.05268709   -1.77014472      23
Ni     5.30194568   -1.05268709   -1.77014472      24
Ni    -1.77014471   -1.05268709    5.30194567      25
Ni    -0.00000002    0.72105032    5.27983567      26
Ni     5.27983568    0.72105032   -0.00000003      27
Ni    -5.27983566    0.72105032   -0.00000003      28
Ni    -0.00000002    0.72105032   -5.27983567      29
Ni    -5.27983568   -2.82642443   -0.00000003      30
Ni    -0.00000002   -2.82642443   -5.27983569      31
Ni    -0.00000002   -2.82642444    5.27983567      32
Ni     5.27983569   -2.82642444   -0.00000003      33
Ni    -1.79431153   -4.60707775   -1.79431154      34
Ni     1.79431153   -4.60707775    1.79431152      35
Ni     1.79431153   -4.60707774   -1.79431153      36
Ni    -1.79431152   -4.60707774    1.79431151      37
Ni     3.52445123   -1.05268708    3.52445121      38
Ni    -3.52445121   -1.05268709   -3.52445122      39
Ni     3.52445122   -1.05268708   -3.52445122      40
Ni    -3.52445121   -1.05268709    3.52445120      41
Ni    -0.00000003   -4.54676520   -0.00000004      42
Ni    -3.56589131   -2.81870994   -1.80995070      43
Ni    -1.80995069   -2.81870994   -3.56589132      44
Ni    -3.56589131   -2.81870994    1.80995069      45
Ni     1.80995070   -2.81870994   -3.56589132      46
Ni     1.80995071   -2.81870994    3.56589131      47
Ni     3.56589132   -2.81870994    1.80995070      48
Ni    -1.80995069   -2.81870994    3.56589129      49
Ni     3.56589131   -2.81870994   -1.80995070      50
Ni     1.76771241    4.21883995   -0.00000003      51
Ni    -0.00000001    4.21883995    1.76771239      52
Ni    -0.00000001    4.21883995   -1.76771239      53
Ni    -1.76771237    4.21883995   -0.00000002      54
Ni     3.61855749    2.56278999   -0.00000003      55
Ni    -0.00000001    2.56278999    3.61855747      56
Ni    -0.00000001    2.56278997   -3.61855746      57
Ni    -3.61855745    2.56278997   -0.00000003      58
Ni    -0.00000003   -2.10537413   -0.00000005      59
Ni     0.00000000    0.00000000    0.00000000      60
Ni     1.80995072    0.71333583    3.56589131      61
Ni     3.56589132    0.71333583    1.80995070      62
Ni    -1.80995068    0.71333582    3.56589131      63
Ni     3.56589132    0.71333583   -1.80995069      64
Ni    -3.56589130    0.71333583   -1.80995070      65
Ni    -1.80995068    0.71333582   -3.56589130      66
Ni    -3.56589129    0.71333582    1.80995069      67
Ni     1.80995070    0.71333582   -3.56589130      68
Ni    -0.00000000    0.86177571    2.03521968      69
Ni     2.03521969    0.86177571   -0.00000002      70
Ni    -2.03521965    0.86177570   -0.00000004      71
Ni    -0.00000002    0.86177570   -2.03521966      72
Ni    -2.03521967   -2.96714983   -0.00000004      73
Ni    -0.00000003   -2.96714983   -2.03521970      74
Ni    -0.00000001   -2.96714982    2.03521965      75
Ni     2.03521967   -2.96714982   -0.00000002      76
Ni    -0.00000002   -1.05268708   -3.55370488      77
Ni    -3.55370487   -1.05268709   -0.00000003      78
Ni     3.55370489   -1.05268709   -0.00000003      79
Ni    -0.00000001   -1.05268709    3.55370487      80
Ni     1.79431154    2.50170364    1.79431153      81
Ni    -1.79431150    2.50170363    1.79431152      82
Ni     1.79431153    2.50170363   -1.79431151      83
Ni    -1.79431151    2.50170364   -1.79431152      84
Ni    -0.00000001    2.44139108   -0.00000002      85
Ni     1.67547005   -1.05268709    1.67547004      86
Ni    -1.67547009   -1.05268709   -1.67547010      87
Ni     1.67547005   -1.05268709   -1.67547009      88
Ni    -1.67547008   -1.05268709    1.67547003      89
          89
Lattice="  28.1697   0.0000   0.0000   0.0000  28.1697   0.0000   0.0000   0.0000  28.1697 " ConfE="      -9113.1821" DelE="          0.3482"
Ni     0.01837120    5.97191091   -0.00013373       1
Ni     3.56000967    2.50707098    3.58040785       2
Ni    -3.52370501    2.47051776   -3.52725116       3
Ni    -3.52356255    2.47045669    3.52703836       4
Ni     3.56008277    2.50711235   -3.58045932       5
Ni     1.76988766    4.26817092    3.57052240       6
Ni     3.56311585    4.28681614    1.82444049       7
Ni    -1.76301332    4.23027888    3.52681196       8
Ni     3.56311161    4.28690934   -1.82464714       9
Ni    -3.50988524    4.21697529   -1.75494085      10
Ni    -1.76317506    4.23062746   -3.52719638      11
Ni    -3.50969570    4.21675891    1.75470962      12
Ni     1.77012530    4.26798366   -3.57047161      13
Ni    -0.00267102   -4.61446428   -3.57876196      14
Ni    -3.75544559   -4.80824269    0.00015617      15
Ni     3.49043730   -4.54374798   -0.00007953      16
Ni    -0.00269485   -4.61531104    3.57954384      17
Ni     5.26761653   -1.04253922    1.76250282      18
Ni     1.77161194   -1.05542009    5.30992127      19
Ni     1.77180291   -1.05549452   -5.30994166      20
Ni    -5.26969461   -1.06246598    1.76295110      21
Ni    -1.77857349   -1.05767968   -5.31162265      22
Ni    -5.26972400   -1.06239882   -1.76278478      23
Ni     5.26753213   -1.04236643   -1.76279875      24
Ni    -1.77857429   -1.05758306    5.31129710      25
Ni    -0.00239513    0.71851968    5.30987909      26
Ni     5.23612595    0.74445922   -0.00003519      27
Ni    -5.25892043    0.68325864    0.00000042      28
Ni    -0.00242264    0.71866273   -5.30990719      29
Ni    -5.25182362   -2.84147348    0.00004699      30
Ni    -0.00456942   -2.83166959   -5.31172577      31
Ni    -0.00451784   -2.83163045    5.31140633      32
Ni     5.25439129   -2.78549417   -0.00013823      33
Ni    -1.79966300   -4.63878181   -1.85258055      34
Ni     1.74848728   -4.55933545    1.76236423      35
Ni     1.74819099   -4.55898379   -1.76225345      36
Ni    -1.79994824   -4.63859949    1.85240026      37
Ni     3.55770156   -1.05830971    3.58279929      38
Ni    -3.56124311   -1.05586420   -3.57841768      39
Ni     3.55878425   -1.05818171   -3.58386284      40
Ni    -3.56211128   -1.05585536    3.57917829      41
Ni    -0.05351817   -4.50747219    0.00023231      42
Ni    -3.58604562   -2.85277271   -1.85261717      43
Ni    -1.79430558   -2.84745415   -3.58847348      44
Ni    -3.58587368   -2.85304068    1.85242648      45
Ni     1.77800960   -2.84162484   -3.58609241      46
Ni     1.77826870   -2.84098010    3.58564548      47
Ni     3.50589862   -2.79971458    1.76182461      48
Ni    -1.79475619   -2.84787259    3.58913453      49
Ni     3.50641209   -2.80015714   -1.76239437      50
Ni     1.79738273    4.18305847   -0.00005168      51
Ni     0.01037353    4.21462823    1.76251526      52
Ni     0.01056622    4.21453155   -1.76285736      53
Ni    -1.73251130    4.20117742   -0.00017026      54
Ni     3.83131478    2.77810105   -0.00032062      55
Ni    -0.00533827    2.50445859    3.58264514      56
Ni    -0.00517465    2.50550309   -3.58373547      57
Ni    -3.49043226    2.43689226   -0.00010844      58
Ni    -0.68220206   -1.73705053    0.00285588      59
Ni     0.80180361   -0.25243827   -0.00360225      60
Ni     1.78501220    0.73188929    3.59229594      61
Ni     3.58527108    0.73787913    1.87622115      62
Ni    -1.78763382    0.72481477    3.58516062      63
Ni     3.58453130    0.73815500   -1.87550835      64
Ni    -3.50568908    0.69462032   -1.76202970      65
Ni    -1.78824735    0.72452053   -3.58563317      66
Ni    -3.50605462    0.69493735    1.76210214      67
Ni     1.78554732    0.73238296   -3.59330819      68
Ni    -0.00928580    0.74386814    1.91394699      69
Ni     2.29441176    1.24236659    0.00146546      70
Ni    -1.67123865    0.62211667   -0.00022631      71
Ni    -0.01006400    0.74556663   -1.91731519      72
Ni    -2.19140927   -3.24399280   -0.00067485      73
Ni    -0.01050583   -2.86690887   -1.90227385      74
Ni    -0.01023548   -2.86860584    1.90452490      75
Ni     1.67616019   -2.72505040   -0.00020869      76
Ni    -0.00796698   -1.06120194   -3.59492469      77
Ni    -3.45477010   -1.10668442    0.00021821      78
Ni     3.43991585   -0.98433010   -0.00042201      79
Ni    -0.00781290   -1.06101119    3.59448083      80
Ni     1.79082691    2.53255451    1.87654923      81
Ni    -1.74647666    2.45245246    1.76165739      82
Ni     1.79112384    2.53179489   -1.87585624      83
Ni    -1.74690355    2.45294724   -1.76227433      84
Ni     0.06850578    2.38698962   -0.00044442      85
Ni     1.79720586   -1.06301458    1.91437508      86
Ni    -1.81330343   -1.06430355   -1.90161250      87
Ni     1.79892890   -1.06381310   -1.91772554      88
Ni    -1.81501837   -1.06400587    1.90384507      89
          89
Lattice="  28.1697   0.0000   0.0000   0.0000  28.1697   0.0000   0.0000   0.0000  28.1697 " ConfE="      -9113.5300" DelE="          0.0003"
Ni     0.00079853    5.98744606   -0.00000176       1
Ni     3.54237050    2.49354144    3.54641376       2
Ni    -3.54122078    2.49232175   -3.54605633       3
Ni    -3.54122121    2.49232049    3.54605607       4
Ni     3.54237535    2.49354480   -3.54642183       5
Ni     1.76481022    4.25018000    3.54424244       6
Ni     3.53926052    4.25365426    1.78057546       7
Ni    -1.76331742    4.24944613    3.54397731       8
Ni     3.53926352    4.25365687   -1.78058274       9
Ni    -3.53776759    4.25251528   -1.78026007      10
Ni    -1.76331594    4.24944744   -3.54397918      11
Ni    -3.53776812    4.25251460    1.78026001      12
Ni     1.76481409    4.25018469   -3.54424891      13
Ni    -0.00041590   -4.57707128   -3.52519691      14
Ni    -3.61579723   -4.67160385    0.00000106      15
Ni     3.61439747   -4.66991341   -0.00000204      16
Ni    -0.00041988   -4.57707313    3.52519697      17
Ni     5.27112709   -1.05177439    1.76782429      18
Ni     1.77385337   -1.05235678    5.28081398      19
Ni     1.77385797   -1.05235659   -5.28081896      20
Ni    -5.27098181   -1.05342913    1.76782626      21
Ni    -1.77365883   -1.05291843   -5.28078432      22
Ni    -5.27098179   -1.05342906   -1.76782566      23
Ni     5.27112922   -1.05177474   -1.76783054      24
Ni    -1.77366171   -1.05291885    5.28078622      25
Ni     0.00040738    0.71751028    5.30277037      26
Ni     5.27142623    0.71562999   -0.00000349      27
Ni    -5.27071511    0.71401999   -0.00000052      28
Ni     0.00041157    0.71751152   -5.30277221      29
Ni    -5.27121395   -2.82086864    0.00000054      30
Ni    -0.00019849   -2.82281013   -5.30279647      31
Ni    -0.00020284   -2.82280995    5.30279522      32
Ni     5.27084021   -2.81921940   -0.00000206      33
Ni    -1.76626278   -4.61885542   -1.81057746      34
Ni     1.76539871   -4.61784226    1.81008621      35
Ni     1.76540074   -4.61784268   -1.81008907      36
Ni    -1.76626536   -4.61885763    1.81057932      37
Ni     3.61510645   -1.05195849    3.61883208      38
Ni    -3.61489918   -1.05329708   -3.61877638      39
Ni     3.61510831   -1.05195914   -3.61883602      40
Ni    -3.61489767   -1.05329695    3.61877464      41
Ni    -0.00032239   -4.60642380    0.00000013      42
Ni    -3.55401628   -2.84737120   -1.79452756      43
Ni    -1.76613970   -2.86270687   -3.56657603      44
Ni    -3.55401987   -2.84737299    1.79452860      45
Ni     1.76562343   -2.86226883   -3.56663802      46
Ni     1.76561951   -2.86227067    3.56663666      47
Ni     3.55363252   -2.84616397    1.79428375      48
Ni    -1.76614333   -2.86270675    3.56657453      49
Ni     3.55363501   -2.84616450   -1.79428797      50
Ni     1.77452308    4.22708923   -0.00000308      51
Ni     0.00068529    4.24909454    1.77055823      52
Ni     0.00068671    4.24909602   -1.77056283      53
Ni    -1.77307174    4.22678517   -0.00000084      54
Ni     3.61617882    2.56648345   -0.00000430      55
Ni     0.00059356    2.47187219    3.52528387      56
Ni     0.00059723    2.47187627   -3.52528985      57
Ni    -3.61432983    2.56474088   -0.00000036      58
Ni    -1.05232778   -1.05452609   -0.00000405      59
Ni     1.05300119   -1.05017499   -0.00000065      60
Ni     1.76636381    0.75747050    3.56660099      61
Ni     3.55409629    0.74214029    1.79447159      62
Ni    -1.76542731    0.75694759    3.56657416      63
Ni     3.55410234    0.74214285   -1.79448059      64
Ni    -3.55343174    0.74093658   -1.79430247      65
Ni    -1.76542526    0.75695112   -3.56657879      66
Ni    -3.55343306    0.74093666    1.79430069      67
Ni     1.76636908    0.75747221   -3.56660588      68
Ni     0.00036621    0.62322858    1.67615996      69
Ni     1.91476062    0.98451641   -0.00000756      70
Ni    -1.91287063    0.98156952   -0.00000146      71
Ni     0.00036633    0.62323011   -1.67616653      72
Ni    -1.91469698   -3.08906436    0.00000237      73
Ni    -0.00010686   -2.72823822   -1.67596545      74
Ni    -0.00010764   -2.72823825    1.67596315      75
Ni     1.91297579   -3.08652462   -0.00000226      76
Ni     0.00007540   -1.05266748   -3.55469180      77
Ni    -3.49345914   -1.05339659   -0.00000084      78
Ni     3.49372528   -1.05172050   -0.00000342      79
Ni     0.00006979   -1.05266832    3.55468879      80
Ni     1.76648149    2.51383332    1.81074943      81
Ni    -1.76524896    2.51271249    1.81015177      82
Ni     1.76648507    2.51383782   -1.81075937      83
Ni    -1.76524790    2.51271364   -1.81015492      84
Ni     0.00038352    2.50142349   -0.00000370      85
Ni     1.91376258   -1.05245586    2.03568269      86
Ni    -1.91360559   -1.05289095   -2.03552263      87
Ni     1.91376623   -1.05245218   -2.03568324      88
Ni    -1.91360796   -1.05289336    2.03551458      89
