          89
Lattice="  28.1697   0.0000   0.0000   0.0000  28.1697   0.0000   0.0000   0.0000  28.1697 " ConfE="      -9113.5303" DelE="          0.0000"
Ni    -0.00000001    5.97859916   -0.00000003       1
Ni     3.54582607    2.48925964    3.54582606       2
Ni    -3.54582604    2.48925962   -3.54582605       3
Ni    -3.54582604    2.48925963    3.54582605       4
Ni     3.54582606    2.48925963   -3.54582605       5
Ni     1.77808258    4.25515860    3.54400938       6
Ni     3.54400939    4.25515860    1.77808257       7
Ni    -1.77808255    4.25515859    3.54400937       8
Ni     3.54400939    4.25515859   -1.77808256       9
Ni    -3.54400936    4.25515858   -1.77808256      10
Ni    -1.77808255    4.25515858   -3.54400937      11
Ni    -3.54400936    4.25515858    1.77808256      12
Ni     1.77808258    4.25515858   -3.54400937      13
Ni    -0.00000003   -4.66816409   -3.61855749      14
Ni    -3.61855748   -4.66816409   -0.00000004      15
Ni     3.61855748   -4.66816409   -0.00000003      16
Ni    -0.00000002   -4.66816409    3.61855746      17
Ni     5.30194569   -1.05268708    1.77014471      18
Ni     1.77014473   -1.05268708    5.30194567      19
Ni     1.77014472   -1.05268708   -5.30194568      20
Ni    -5.30194567   -1.05268708    1.77014471      21
Ni    -1.77014471   -1.05268709   -5.30194568      22
Ni    -5.30194567   -1.05268709   -1.77014472      23
Ni     5.30194568   -1.05268709   -1.77014472      24
Ni    -1.77014471   -1.05268709    5.30194567      25
Ni    -0.00000002    0.72105032    5.27983567      26
Ni     5.27983568    0.72105032   -0.00000003      27
Ni    -5.27983566    0.72105032   -0.00000003      28
Ni    -0.00000002    0.72105032   -5.27983567      29
Ni    -5.27983568   -2.82642443   -0.00000003      30
Ni    -0.00000002   -2.82642443   -5.27983569      31
Ni    -0.00000002   -2.82642444    5.27983567      32
Ni     5.27983569   -2.82642444   -0.00000003      33
Ni    -1.79431153   -4.60707775   -1.79431154      34
Ni     1.79431153   -4.60707775    1.79431152      35
Ni     1.79431153   -4.60707774   -1.79431153      36
Ni    -1.79431152   -4.60707774    1.79431151      37
Ni     3.52445123   -1.05268708    3.52445121      38
Ni    -3.52445121   -1.05268709   -3.52445122      39
Ni     3.52445122   -1.05268708   -3.52445122      40
Ni    -3.52445121   -1.05268709    3.52445120      41
Ni    -0.00000003   -4.54676520   -0.00000004      42
Ni    -3.56589131   -2.81870994   -1.80995070      43
Ni    -1.80995069   -2.81870994   -3.56589132      44
Ni    -3.56589131   -2.81870994    1.80995069      45
Ni     1.80995070   -2.81870994   -3.56589132      46
Ni     1.80995071   -2.81870994    3.56589131      47
Ni     3.56589132   -2.81870994    1.80995070      48
Ni    -1.80995069   -2.81870994    3.56589129      49
Ni     3.56589131   -2.81870994   -1.80995070      50
Ni     1.76771241    4.21883995   -0.00000003      51
Ni    -0.00000001    4.21883995    1.76771239      52
Ni    -0.00000001    4.21883995   -1.76771239      53
Ni    -1.76771237    4.21883995   -0.00000002      54
Ni     3.61855749    2.56278999   -0.00000003      55
Ni    -0.00000001    2.56278999    3.61855747      56
Ni    -0.00000001    2.56278997   -3.61855746      57
Ni    -3.61855745    2.56278997   -0.00000003      58
Ni    -0.00000003   -2.10537413   -0.00000005      59
Ni     0.00000000    0.00000000    0.00000000      60
Ni     1.80995072    0.71333583    3.56589131      61
Ni     3.56589132    0.71333583    1.80995070      62
Ni    -1.80995068    0.71333582    3.56589131      63
Ni     3.56589132    0.71333583   -1.80995069      64
Ni    -3.56589130    0.71333583   -1.80995070      65
Ni    -1.80995068    0.71333582   -3.56589130      66
Ni    -3.56589129    0.71333582    1.80995069      67
Ni     1.80995070    0.71333582   -3.56589130      68
Ni    -0.00000000    0.86177571    2.03521968      69
Ni     2.03521969    0.86177571   -0.00000002      70
Ni    -2.03521965    0.86177570   -0.00000004      71
Ni    -0.00000002    0.86177570   -2.03521966      72
Ni    -2.03521967   -2.96714983   -0.00000004      73
Ni    -0.00000003   -2.96714983   -2.03521970      74
Ni    -0.00000001   -2.96714982    2.03521965      75
Ni     2.03521967   -2.96714982   -0.00000002      76
Ni    -0.00000002   -1.05268708   -3.55370488      77
Ni    -3.55370487   -1.05268709   -0.00000003      78
Ni     3.55370489   -1.05268709   -0.00000003      79
Ni    -0.00000001   -1.05268709    3.55370487      80
Ni     1.79431154    2.50170364    1.79431153      81
Ni    -1.79431150    2.50170363    1.79431152      82
Ni     1.79431153    2.50170363   -1.79431151      83
Ni    -1.79431151    2.50170364   -1.79431152      84
Ni    -0.00000001    2.44139108   -0.00000002      85
Ni     1.67547005   -1.05268709    1.67547004      86
Ni    -1.67547009   -1.05268709   -1.67547010      87
Ni     1.67547005   -1.05268709   -1.67547009      88
Ni    -1.67547008   -1.05268709    1.67547003      89
          89
Lattice="  28.1697   0.0000   0.0000   0.0000  28.1697   0.0000   0.0000   0.0000  28.1697 " ConfE="      -9113.1823" DelE="          0.3480"
Ni     0.00022392    5.97286559    0.01776261       1
Ni     3.57929524    2.50756894    3.56046654       2
Ni    -3.52692827    2.47055971   -3.52338170       3
Ni    -3.57901346    2.50743545    3.56033424       4
Ni     3.52722096    2.47063407   -3.52359532       5
Ni     1.82165407    4.28605585    3.56311530       6
Ni     3.56936392    4.26782501    1.77088941       7
Ni    -1.82124890    4.28591987    3.56310306       8
Ni     3.52720945    4.23078215   -1.76304433       9
Ni    -3.52663914    4.23027923   -1.76276456      10
Ni    -1.75469897    4.21691140   -3.50961216      11
Ni    -3.56923587    4.26794524    1.77060359      12
Ni     1.75503113    4.21720857   -3.50988302      13
Ni    -0.00021204   -4.81952418   -3.76657463      14
Ni    -3.58046909   -4.61518229   -0.00141195      15
Ni     3.57946037   -4.61403824   -0.00140285      16
Ni     0.00015167   -4.54363296    3.49049011      17
Ni     5.31007284   -1.05428623    1.77306520      18
Ni     1.76292142   -1.04245506    5.26776055      19
Ni     1.76268975   -1.06246984   -5.26925385      20
Ni    -5.30998645   -1.05418431    1.77288176      21
Ni    -1.76289216   -1.06257646   -5.26917511      22
Ni    -5.31082921   -1.05643613   -1.77738014      23
Ni     5.31127718   -1.05655523   -1.77742415      24
Ni    -1.76235117   -1.04265780    5.26784058      25
Ni     0.00015905    0.74288015    5.23883258      26
Ni     5.31004699    0.71993334   -0.00117309      27
Ni    -5.30995402    0.71974420   -0.00106312      28
Ni    -0.00000034    0.68269303   -5.25802919      29
Ni    -5.31097556   -2.83058097   -0.00330144      30
Ni    -0.00004480   -2.84267816   -5.24934357      31
Ni     0.00025023   -2.78599161    5.25505219      32
Ni     5.31141949   -2.83061339   -0.00342896      33
Ni    -1.85600930   -4.63878442   -1.79881961      34
Ni     1.76225410   -4.55894905    1.74806831      35
Ni     1.85640568   -4.63912535   -1.79846601      36
Ni    -1.76235396   -4.55943060    1.74850453      37
Ni     3.58358838   -1.05668231    3.55995226      38
Ni    -3.58005659   -1.05463188   -3.56176332      39
Ni     3.57905723   -1.05461609   -3.56062976      40
Ni    -3.58202656   -1.05681435    3.55853575      41
Ni    -0.00028464   -4.50498625   -0.05568552      42
Ni    -3.58995309   -2.84672865   -1.79345270      43
Ni    -1.85606689   -2.85201302   -3.58591006      44
Ni    -3.58573420   -2.83942282    1.78018429      45
Ni     1.85646414   -2.85165630   -3.58625706      46
Ni     1.76254076   -2.80044642    3.50655548      47
Ni     3.58630457   -2.84022022    1.77975054      48
Ni    -1.76168454   -2.79987703    3.50590633      49
Ni     3.58909671   -2.84616222   -1.79289237      50
Ni     1.76301778    4.21504781    0.01046113      51
Ni     0.00016478    4.18589402    1.79583464      52
Ni     0.00026080    4.20205539   -1.73297322      53
Ni    -1.76243072    4.21512201    0.01026035      54
Ni     3.58333268    2.50662925   -0.00365876      55
Ni     0.00045705    2.76498319    3.81820911      56
Ni     0.00015793    2.43691594   -3.49003064      57
Ni    -3.58176258    2.50521935   -0.00378462      58
Ni    -0.00384339   -1.75579482   -0.70091840      59
Ni     0.00474216   -0.27228978    0.78335488      60
Ni     1.87166218    0.74018339    3.58492517      61
Ni     3.59300922    0.73437080    1.78749743      62
Ni    -1.87221684    0.73981619    3.58575650      63
Ni     3.58563161    0.72622790   -1.78653985      64
Ni    -3.58505305    0.72665258   -1.78573354      65
Ni    -1.76202207    0.69487989   -3.50586439      66
Ni    -3.59152396    0.73369377    1.78682336      67
Ni     1.76193133    0.69444636   -3.50538962      68
Ni    -0.00161157    1.22556867    2.27668419      69
Ni     1.91617545    0.74894346   -0.00629691      70
Ni    -1.91172018    0.74663850   -0.00536510      71
Ni     0.00030070    0.62090208   -1.67097037      72
Ni    -1.90754293   -2.86670468   -0.00681280      73
Ni     0.00106850   -3.25998378   -2.20732687      74
Ni     0.00029617   -2.72523817    1.67512716      75
Ni     1.90450358   -2.86442815   -0.00726679      76
Ni    -0.00028148   -1.10890604   -3.45205678      77
Ni    -3.59444131   -1.05846260   -0.00517077      78
Ni     3.59501367   -1.05869522   -0.00541577      79
Ni     0.00064761   -0.98649212    3.44176519      80
Ni     1.87225808    2.53259423    1.79306565      81
Ni    -1.87280865    2.53342772    1.79270329      82
Ni     1.76236650    2.45309072   -1.74697442      83
Ni    -1.76149518    2.45243750   -1.74639627      84
Ni     0.00065708    2.38929322    0.06614305      85
Ni     1.91717210   -1.06049523    1.80247436      86
Ni    -1.90688253   -1.06075521   -1.81292178      87
Ni     1.90384715   -1.06121193   -1.81065370      88
Ni    -1.91271183   -1.05957486    1.80017066      89
          89
Lattice="  28.1697   0.0000   0.0000   0.0000  28.1697   0.0000   0.0000   0.0000  28.1697 " ConfE="      -9113.5300" DelE="          0.0002"
Ni     0.00000320    5.98746768    0.00074230       1
Ni     3.54639816    2.49351671    3.54232483       2
Ni    -3.54605924    2.49232840   -3.54124842       3
Ni    -3.54638414    2.49351093    3.54231810       4
Ni     3.54606067    2.49233037   -3.54124935       5
Ni     1.78055761    4.25361867    3.53919023       6
Ni     3.54420197    4.25015273    1.76475650       7
Ni    -1.78054421    4.25361415    3.53918620       8
Ni     3.54396867    4.24945721   -1.76334965       9
Ni    -3.54396433    4.24945323   -1.76335022      10
Ni    -1.78026050    4.25253008   -3.53779399      11
Ni    -3.54419099    4.25014496    1.76475187      12
Ni     1.78026144    4.25253248   -3.53779487      13
Ni    -0.00000131   -4.67159268   -3.61579113      14
Ni    -3.52520863   -4.57711024   -0.00043219      15
Ni     3.52521076   -4.57710910   -0.00042793      16
Ni     0.00000502   -4.67001133    3.61444068      17
Ni     5.28081033   -1.05238389    1.77382791      18
Ni     1.76783583   -1.05183495    5.27110477      19
Ni     1.76782463   -1.05343179   -5.27099941      20
Ni    -5.28080235   -1.05238358    1.77382191      21
Ni    -1.76782567   -1.05343156   -5.27099891      22
Ni    -5.28078414   -1.05293365   -1.77368597      23
Ni     5.28078237   -1.05293359   -1.77368341      24
Ni    -1.76782250   -1.05183436    5.27110123      25
Ni     0.00000729    0.71557785    5.27137863      26
Ni     5.30276943    0.71749930    0.00037230      27
Ni    -5.30276566    0.71749734    0.00036797      28
Ni     0.00000077    0.71402266   -5.27073551      29
Ni    -5.30278834   -2.82282775   -0.00022318      30
Ni    -0.00000093   -2.82086561   -5.27123440      31
Ni     0.00000527   -2.81928917    5.27082814      32
Ni     5.30279139   -2.82282920   -0.00021876      33
Ni    -1.81057956   -4.61888529   -1.76627582      34
Ni     1.81012184   -4.61792355    1.76540144      35
Ni     1.81057903   -4.61888353   -1.76627310      36
Ni    -1.81011409   -4.61792210    1.76539869      37
Ni     3.61883612   -1.05200118    3.61508231      38
Ni    -3.61878630   -1.05330307   -3.61492884      39
Ni     3.61878783   -1.05330375   -3.61493055      40
Ni    -3.61882612   -1.05200009    3.61507793      41
Ni     0.00000149   -4.60648496   -0.00032159      42
Ni    -3.56657722   -2.86273204   -1.76615897      43
Ni    -1.79451125   -2.84738056   -3.55402606      44
Ni    -3.56661777   -2.86228889    1.76560054      45
Ni     1.79451076   -2.84737848   -3.55402219      46
Ni     1.79430168   -2.84622169    3.55361539      47
Ni     3.56662523   -2.86228923    1.76560683      48
Ni    -1.79429093   -2.84621994    3.55361139      49
Ni     3.56657962   -2.86273228   -1.76615510      50
Ni     1.77054179    4.24907777    0.00064917      51
Ni     0.00000584    4.22708430    1.77445950      52
Ni     0.00000194    4.22675985   -1.77309642      53
Ni    -1.77053273    4.24907463    0.00064757      54
Ni     3.52527074    2.47185014    0.00056193      55
Ni     0.00000818    2.56639869    3.61606425      56
Ni     0.00000101    2.56476603   -3.61438869      57
Ni    -3.52526100    2.47184391    0.00055806      58
Ni     0.00000211   -1.05446175   -1.05242410      59
Ni     0.00000604   -1.05045507    1.05290373      60
Ni     1.79449037    0.74209855    3.55409032      61
Ni     3.56660571    0.75744672    1.76632667      62
Ni    -1.79447362    0.74209531    3.55408259      63
Ni     3.56658068    0.75694486   -1.76546182      64
Ni    -3.56657488    0.75694082   -1.76546462      65
Ni    -1.79430585    0.74093588   -3.55346935      66
Ni    -3.56659587    0.75744390    1.76632015      67
Ni     1.79430984    0.74093548   -3.55346874      68
Ni     0.00001166    0.98427579    1.91470720      69
Ni     1.67613595    0.62316788    0.00031585      70
Ni    -1.67612458    0.62316603    0.00031620      71
Ni     0.00000491    0.98161415   -1.91295056      72
Ni    -1.67599050   -2.72830071   -0.00012476      73
Ni    -0.00000147   -3.08908424   -1.91464816      74
Ni     0.00000529   -3.08670629    1.91302568      75
Ni     1.67599670   -2.72830116   -0.00012369      76
Ni     0.00000112   -1.05340328   -3.49349657      77
Ni    -3.55467909   -1.05268173    0.00005097      78
Ni     3.55468537   -1.05268125    0.00005738      79
Ni     0.00000736   -1.05181005    3.49369035      80
Ni     1.81070773    2.51375131    1.76643207      81
Ni    -1.81069113    2.51374512    1.76642713      82
Ni     1.81016165    2.51270620   -1.76528338      83
Ni    -1.81015536    2.51270350   -1.76528344      84
Ni     0.00000714    2.50135939    0.00037376      85
Ni     2.03565567   -1.05244953    1.91375186      86
Ni    -2.03553152   -1.05291413   -1.91363201      87
Ni     2.03553925   -1.05291190   -1.91362788      88
Ni    -2.03564705   -1.05245289    1.91374556      89
