          89
Lattice="  28.1697   0.0000   0.0000   0.0000  28.1697   0.0000   0.0000   0.0000  28.1697 " ConfE="      -9113.5303" DelE="          0.0000"
Ni    -0.00000000   -5.97859912    0.00000001       1
Ni     3.54582610   -2.48925961    3.54582611       2
Ni    -3.54582603   -2.48925962   -3.54582602       3
Ni    -3.54582603   -2.48925961    3.54582610       4
Ni     3.54582609   -2.48925961   -3.54582602       5
Ni     1.77808260   -4.25515856    3.54400943       6
Ni     3.54400942   -4.25515856    1.77808261       7
Ni    -1.77808254   -4.25515855    3.54400942       8
Ni     3.54400941   -4.25515855   -1.77808253       9
Ni    -3.54400936   -4.25515856   -1.77808253      10
Ni    -1.77808254   -4.25515856   -3.54400935      11
Ni    -3.54400936   -4.25515855    1.77808261      12
Ni     1.77808260   -4.25515855   -3.54400935      13
Ni     0.00000002    4.66816410   -3.61855740      14
Ni    -3.61855742    4.66816410    0.00000002      15
Ni     3.61855751    4.66816411    0.00000003      16
Ni     0.00000002    4.66816412    3.61855752      17
Ni     5.30194572    1.05268705    1.77014476      18
Ni     1.77014475    1.05268705    5.30194573      19
Ni     1.77014475    1.05268705   -5.30194563      20
Ni    -5.30194564    1.05268705    1.77014476      21
Ni    -1.77014468    1.05268704   -5.30194563      22
Ni    -5.30194564    1.05268704   -1.77014467      23
Ni     5.30194571    1.05268704   -1.77014467      24
Ni    -1.77014468    1.05268704    5.30194572      25
Ni     0.00000001   -0.72105031    5.27983572      26
Ni     5.27983571   -0.72105031    0.00000002      27
Ni    -5.27983565   -0.72105031    0.00000002      28
Ni     0.00000001   -0.72105031   -5.27983563      29
Ni    -5.27983564    2.82642445    0.00000002      30
Ni     0.00000001    2.82642445   -5.27983562      31
Ni     0.00000001    2.82642445    5.27983572      32
Ni     5.27983571    2.82642445    0.00000002      33
Ni    -1.79431148    4.60707777   -1.79431147      34
Ni     1.79431157    4.60707777    1.79431158      35
Ni     1.79431156    4.60707776   -1.79431146      36
Ni    -1.79431147    4.60707776    1.79431157      37
Ni     3.52445125    1.05268704    3.52445126      38
Ni    -3.52445118    1.05268704   -3.52445117      39
Ni     3.52445125    1.05268704   -3.52445117      40
Ni    -3.52445118    1.05268704    3.52445126      41
Ni     0.00000002    4.54676521    0.00000003      42
Ni    -3.56589127    2.81870995   -1.80995065      43
Ni    -1.80995065    2.81870995   -3.56589125      44
Ni    -3.56589126    2.81870995    1.80995074      45
Ni     1.80995073    2.81870995   -3.56589125      46
Ni     1.80995074    2.81870996    3.56589136      47
Ni     3.56589135    2.81870996    1.80995075      48
Ni    -1.80995065    2.81870995    3.56589136      49
Ni     3.56589135    2.81870995   -1.80995064      50
Ni     1.76771243   -4.21883992    0.00000001      51
Ni     0.00000000   -4.21883992    1.76771244      52
Ni     0.00000000   -4.21883992   -1.76771236      53
Ni    -1.76771237   -4.21883992    0.00000001      54
Ni     3.61855751   -2.56278996    0.00000002      55
Ni     0.00000001   -2.56278996    3.61855751      56
Ni     0.00000000   -2.56278997   -3.61855744      57
Ni    -3.61855745   -2.56278996    0.00000001      58
Ni     0.00000003    2.10537413    0.00000005      59
Ni     0.00000000    0.00000000    0.00000000      60
Ni     1.80995074   -0.71333582    3.56589136      61
Ni     3.56589135   -0.71333582    1.80995075      62
Ni    -1.80995066   -0.71333581    3.56589134      63
Ni     3.56589134   -0.71333581   -1.80995065      64
Ni    -3.56589128   -0.71333582   -1.80995065      65
Ni    -1.80995067   -0.71333582   -3.56589127      66
Ni    -3.56589128   -0.71333581    1.80995074      67
Ni     1.80995073   -0.71333581   -3.56589127      68
Ni     0.00000002   -0.86177569    2.03521970      69
Ni     2.03521970   -0.86177569    0.00000003      70
Ni    -2.03521964   -0.86177570    0.00000001      71
Ni    -0.00000000   -0.86177571   -2.03521964      72
Ni    -2.03521962    2.96714983    0.00000001      73
Ni     0.00000001    2.96714982   -2.03521960      74
Ni     0.00000002    2.96714984    2.03521973      75
Ni     2.03521972    2.96714984    0.00000003      76
Ni     0.00000001    1.05268704   -3.55370483      77
Ni    -3.55370484    1.05268704    0.00000002      78
Ni     3.55370492    1.05268704    0.00000002      79
Ni     0.00000001    1.05268704    3.55370492      80
Ni     1.79431156   -2.50170363    1.79431157      81
Ni    -1.79431149   -2.50170362    1.79431156      82
Ni     1.79431155   -2.50170362   -1.79431148      83
Ni    -1.79431150   -2.50170362   -1.79431149      84
Ni     0.00000000   -2.44139107    0.00000001      85
Ni     1.67547008    1.05268703    1.67547009      86
Ni    -1.67547006    1.05268704   -1.67547005      87
Ni     1.67547008    1.05268704   -1.67547004      88
Ni    -1.67547005    1.05268704    1.67547008      89
          89
Lattice="  28.1697   0.0000   0.0000   0.0000  28.1697   0.0000   0.0000   0.0000  28.1697 " ConfE="      -9113.1808" DelE="          0.3495"
Ni     0.00001389   -5.96952211   -0.01992203       1
Ni     3.52716925   -2.46993884    3.52369240       2
Ni    -3.58339316   -2.50572807   -3.55848720       3
Ni    -3.52696966   -2.46981566    3.52351692       4
Ni     3.58322344   -2.50566488   -3.55839821       5
Ni     1.75484461   -4.21668388    3.51003307       6
Ni     3.52734473   -4.23075512    1.76395032       7
Ni    -1.75472576   -4.21653169    3.50989203       8
Ni     3.57405126   -4.26925659   -1.76755541       9
Ni    -3.57431112   -4.26951727   -1.76746546      10
Ni    -1.83232881   -4.28830614   -3.56266272      11
Ni    -3.52716821   -4.23054074    1.76385288      12
Ni     1.83235100   -4.28835267   -3.56257427      13
Ni     0.00013588    4.54528071   -3.49128492      14
Ni    -3.57767083    4.61637829    0.00551408      15
Ni     3.57748521    4.61602770    0.00556603      16
Ni     0.00001848    4.78159263    3.72850564      17
Ni     5.31274023    1.06061366    1.78130143      18
Ni     1.76318580    1.06220821    5.27132343      19
Ni     1.76233260    1.04151652   -5.26608031      20
Ni    -5.31240683    1.06056025    1.78116804      21
Ni    -1.76218594    1.04166694   -5.26618502      22
Ni    -5.30965086    1.05861486   -1.76845471      23
Ni     5.30972512    1.05864313   -1.76854416      24
Ni    -1.76313964    1.06223517    5.27127078      25
Ni     0.00005180   -0.68485782    5.26129232      26
Ni     5.30975745   -0.71535689    0.00585135      27
Ni    -5.30969744   -0.71522756    0.00578157      28
Ni    -0.00003356   -0.74817886   -5.23025868      29
Ni    -5.31233613    2.83446128    0.00719471      30
Ni     0.00012105    2.78384600   -5.25205881      31
Ni     0.00003995    2.83908542    5.25769226      32
Ni     5.31268033    2.83454975    0.00728842      33
Ni    -1.76260247    4.56016691   -1.74924278      34
Ni     1.84278506    4.63702663    1.80222881      35
Ni     1.76278669    4.56002123   -1.74909546      36
Ni    -1.84254183    4.63694400    1.80232716      37
Ni     3.57587113    1.05895471    3.56150158      38
Ni    -3.58365457    1.06176657   -3.55481591      39
Ni     3.58425463    1.06163808   -3.55539486      40
Ni    -3.57607211    1.05892600    3.56181405      41
Ni     0.00000476    4.51309251    0.04879571      42
Ni    -3.58611488    2.84558131   -1.77432201      43
Ni    -1.76188701    2.79955824   -3.50609477      44
Ni    -3.58683025    2.85066530    1.79743034      45
Ni     1.76237114    2.79983796   -3.50640324      46
Ni     1.84396664    2.85502246    3.58589550      47
Ni     3.58671043    2.85051065    1.79730328      48
Ni    -1.84373690    2.85512878    3.58578971      49
Ni     3.58666275    2.84607097   -1.77420251      50
Ni     1.76289290   -4.21440409   -0.00992829      51
Ni     0.00008088   -4.20009418    1.73240639      52
Ni    -0.00005706   -4.17420360   -1.80224393      53
Ni    -1.76280771   -4.21450318   -0.00978886      54
Ni     3.58504565   -2.50241743    0.01025434      55
Ni     0.00009328   -2.43652701    3.49100334      56
Ni     0.00022221   -2.81173074   -3.87008255      57
Ni    -3.58450052   -2.50182720    0.01035421      58
Ni    -0.00132293    1.69442091    0.62981826      59
Ni     0.00223800    0.20417004   -0.85267834      60
Ni     1.76202534   -0.69432518    3.50581150      61
Ni     3.58470416   -0.71933871    1.79207958      62
Ni    -1.76189021   -0.69445408    3.50592002      63
Ni     3.59395438   -0.72688346   -1.77983910      64
Ni    -3.59340001   -0.72662446   -1.77960728      65
Ni    -1.88336881   -0.73334282   -3.58105115      66
Ni    -3.58419629   -0.71942870    1.79155486      67
Ni     1.88260814   -0.73348639   -3.58033028      68
Ni     0.00024778   -0.62377919    1.67144342      69
Ni     1.91847169   -0.73643435    0.01926870      70
Ni    -1.91632789   -0.73559684    0.01855082      71
Ni    -0.00124142   -1.29420914   -2.33410050      72
Ni    -1.89828185    2.87454357    0.01694957      73
Ni     0.00026842    2.72780580   -1.68181709      74
Ni     0.00038814    3.20225553    2.15425834      75
Ni     1.89743992    2.87372304    0.01711062      76
Ni     0.00026469    0.97658294   -3.43361382      77
Ni    -3.59436373    1.06747140    0.01440819      78
Ni     3.59487747    1.06763121    0.01461094      79
Ni    -0.00000989    1.10086619    3.46319539      80
Ni     1.76221617   -2.45266782    1.74693837      81
Ni    -1.76180406   -2.45235424    1.74663550      82
Ni     1.88757874   -2.53087647   -1.78360057      83
Ni    -1.88837439   -2.53158988   -1.78347549      84
Ni     0.00024305   -2.38392834   -0.07145451      85
Ni     1.89273881    1.07350940    1.81777586      86
Ni    -1.91790979    1.07388442   -1.78810541      87
Ni     1.92009148    1.07458207   -1.78893117      88
Ni    -1.89359288    1.07336329    1.81855484      89
          89
Lattice="  28.1697   0.0000   0.0000   0.0000  28.1697   0.0000   0.0000   0.0000  28.1697 " ConfE="      -9113.5301" DelE="          0.0002"
Ni    -0.00000004   -5.97780121    0.00729298       1
Ni     3.54392888   -2.47036849    3.54247767       2
Ni    -3.56626656   -2.47293959   -3.56937000       3
Ni    -3.54392750   -2.47036772    3.54247659       4
Ni     3.56626813   -2.47294087   -3.56937064       5
Ni     1.78026072   -4.24474775    3.54556475       6
Ni     3.54603651   -4.24824265    1.78556850       7
Ni    -1.78026040   -4.24474703    3.54556429       8
Ni     3.61872638   -4.32181104   -1.75999266       9
Ni    -3.61872618   -4.32181014   -1.75999261      10
Ni    -1.79458433   -4.26095456   -3.55412407      11
Ni    -3.54603619   -4.24824159    1.78556793      12
Ni     1.79458446   -4.26095503   -3.55412411      13
Ni     0.00000271    4.56399859   -3.52616694      14
Ni    -3.54440627    4.60085775    0.01896107      15
Ni     3.54441172    4.60085934    0.01896086      16
Ni     0.00000257    4.61512688    3.56460733      17
Ni     5.30343353    1.05768699    1.78416395      18
Ni     1.76402092    1.05924175    5.28589690      19
Ni     1.80982685    1.05843130   -5.32444861      20
Ni    -5.30343044    1.05768698    1.78416252      21
Ni    -1.80982276    1.05843111   -5.32444784      22
Ni    -5.28065561    1.06693178   -1.75938514      23
Ni     5.28065804    1.06693192   -1.75938609      24
Ni    -1.76401754    1.05924179    5.28589619      25
Ni     0.00000128   -0.70612588    5.28040314      26
Ni     5.30271865   -0.70651549    0.01060327      27
Ni    -5.30271647   -0.70651434    0.01060310      28
Ni     0.00000091   -0.70717205   -5.31312056      29
Ni    -5.30678718    2.83196898    0.02095852      30
Ni     0.00000227    2.90718867   -5.37661729      31
Ni     0.00000223    2.82305962    5.28497618      32
Ni     5.30679051    2.83197068    0.02095860      33
Ni    -1.76784633    4.56426414   -1.75870717      34
Ni     1.77850991    4.60123009    1.78478975      35
Ni     1.76785272    4.56426511   -1.75870795      36
Ni    -1.77850461    4.60122998    1.78478950      37
Ni     3.54446939    1.05785866    3.54334639      38
Ni    -3.56658509    1.05879730   -3.56920180      39
Ni     3.56659079    1.05879745   -3.56920521      40
Ni    -3.54446554    1.05785861    3.54334467      41
Ni     0.00000330    4.56450980    0.00877777      42
Ni    -3.61893664    2.90830590   -1.75902818      43
Ni    -1.79430223    2.84690305   -3.55303938      44
Ni    -3.54654052    2.83549615    1.78658840      45
Ni     1.79430759    2.84690417   -3.55304099      46
Ni     1.78069609    2.83251670    3.54677705      47
Ni     3.54654576    2.83549705    1.78658937      48
Ni    -1.78069180    2.83251646    3.54677677      49
Ni     3.61894435    2.90830953   -1.75902960      50
Ni     1.79430320   -4.26058393    0.03427010      51
Ni     0.00000033   -4.32105297    1.85771630      52
Ni     0.00000038   -4.20029708   -1.76014474      53
Ni    -1.79430186   -4.26058314    0.03427028      54
Ni     3.56652586   -2.47235216    0.05015574      55
Ni     0.00000073   -2.48006410    3.51993486      56
Ni     0.00000087   -2.62181994   -3.79600495      57
Ni    -3.56652432   -2.47235120    0.05015533      58
Ni     0.00000360    1.20829452    0.27880457      59
Ni     0.00000798    0.34659445   -1.75587202      60
Ni     1.77058118   -0.70631548    3.54225489      61
Ni     3.52525525   -0.70636768    1.76499406      62
Ni    -1.77057829   -0.70631547    3.54225424      63
Ni     3.55452899   -0.70688245   -1.75956568      64
Ni    -3.55452499   -0.70688124   -1.75956482      65
Ni    -1.67572657   -0.70702873   -3.43480883      66
Ni    -3.52525136   -0.70636725    1.76499245      67
Ni     1.67573072   -0.70702926   -3.43481052      68
Ni     0.00000210   -0.70661215    1.79455066      69
Ni     1.67613672   -0.70630255   -0.08362674      70
Ni    -1.67612982   -0.70630246   -0.08362849      71
Ni    -0.00000002   -1.75857967   -1.76181745      72
Ni    -1.79457489    2.84715710    0.03527498      73
Ni     0.00000409    2.78699393   -1.75838659      74
Ni     0.00000251    2.90988268    1.86013631      75
Ni     1.79458172    2.84715706    0.03527452      76
Ni     0.00000237    1.20606347   -3.79251402      77
Ni    -3.56658040    1.05942163    0.05054670      78
Ni     3.56658596    1.05942204    0.05054763      79
Ni     0.00000196    1.06764798    3.51999808      80
Ni     1.80995889   -2.47215474    1.80565244      81
Ni    -1.80995674   -2.47215426    1.80565114      82
Ni     2.03516973   -2.62075233   -1.75928112      83
Ni    -2.03516778   -2.62075215   -1.75928075      84
Ni     0.00000191   -2.61982715    0.27411652      85
Ni     1.81096608    1.05961019    1.80713031      86
Ni    -2.03575972    1.20705339   -1.75960046      87
Ni     2.03577218    1.20705478   -1.75960322      88
Ni    -1.81096050    1.05960977    1.80712931      89
