          18
Lattice="  35.4000   0.0000   0.0000   0.0000  35.4000   0.0000   0.0000   0.0000  35.4000 " ConfE="     -17786.8827" DelE="          0.0000"
Ni    -0.00000037    3.52334690   -0.00000036       1
Ni     3.51982245   -0.00017012    0.00029772       2
Ni    -0.01054366   -3.55181105   -0.00010863       3
Ni    -3.55032072   -0.00937780   -0.00041107       4
Ni    -0.00713497   -0.00659195   -3.53649909       5
Ni    -0.00711606   -0.00647287    3.53630090       6
Ni     0.00076201    1.76167264   -1.75918518       7
Ni     0.00086008    1.76167398    1.75912292       8
Ni     1.75969072   -0.00016968   -1.75983428       9
Ni     1.75998483    0.00000034    1.75998489      10
Ni    -1.78821752    1.76167384   -0.00015804      11
Ni     1.75988100   -1.78945667    0.00010551      12
Ni    -1.77526683   -1.77550381   -0.00016717      13
Ni    -1.77616178   -0.00668023   -1.76740644      14
Ni    -1.77631946   -0.00647293    1.76709713      15
Ni    -0.00732040   -1.77728808   -1.76756194      16
Ni    -0.00743451   -1.77716521    1.76741755      17
Ni     0.00000000    0.00000000    0.00000000      18
          18
Lattice="  35.4000   0.0000   0.0000   0.0000  35.4000   0.0000   0.0000   0.0000  35.4000 " ConfE="     -17785.8602" DelE="          1.0225"
Ni     0.02719604    3.45587624   -0.00032822       1
Ni     3.45385615    0.02769416   -0.00026273       2
Ni    -0.00109254   -3.53824182   -0.00035303       3
Ni    -3.53799183   -0.00011909   -0.00043884       4
Ni    -0.02115772   -0.02026746   -3.60305384       5
Ni    -0.02111776   -0.02025949    3.60233964       6
Ni    -0.04293478    1.79506914   -1.93238276       7
Ni    -0.04290253    1.79509857    1.93174671       8
Ni     1.79345343   -0.04250424   -1.93236868       9
Ni     1.79354516   -0.04247658    1.93178076      10
Ni    -1.70335136    1.72480821   -0.00037249      11
Ni     1.72326084   -1.70330257   -0.00030337      12
Ni    -1.74365453   -1.74339018   -0.00038131      13
Ni    -1.74345685    0.00433883   -1.77365380      14
Ni    -1.74343327    0.00435570    1.77287523      15
Ni     0.00342148   -1.74362831   -1.77395059      16
Ni     0.00345255   -1.74360503    1.77326064      17
Ni     0.87530153    0.87628630   -0.00029568      18
          18
Lattice="  35.4000   0.0000   0.0000   0.0000  35.4000   0.0000   0.0000   0.0000  35.4000 " ConfE="     -17786.8827" DelE="          0.0000"
Ni    -0.01071824    3.53887572   -0.00042744       1
Ni     3.53721300   -0.00976639   -0.00039827       2
Ni    -0.01038659   -3.55813250   -0.00045948       3
Ni    -3.55846465   -0.00937720   -0.00049992       4
Ni    -0.01070261   -0.00973661   -3.55159139       5
Ni    -0.01068692   -0.00974413    3.55069070       6
Ni    -0.01082248    1.75043975   -1.76224593       7
Ni    -0.01081161    1.75043748    1.76138625       8
Ni     1.74894342   -0.00987132   -1.76208233       9
Ni     1.74898788   -0.00987511    1.76127189      10
Ni    -1.76957432    1.74976292   -0.00045661      11
Ni     1.74843292   -1.76902585   -0.00041967      12
Ni    -1.76957555   -1.76894151   -0.00047240      13
Ni    -1.77033653   -0.00961585   -1.76208605      14
Ni    -1.77033251   -0.00961815    1.76114208      15
Ni    -0.01059761   -1.76987246   -1.76218595      16
Ni    -0.01058766   -1.76987039    1.76128704      17
Ni     1.74792736    1.74928609   -0.00040060      18
