          18
Lattice="  35.4000   0.0000   0.0000   0.0000  35.4000   0.0000   0.0000   0.0000  35.4000 " ConfE="     -17786.8827" DelE="          0.0000"
Ni     0.00029947   -3.51981534   -0.00017018       1
Ni    -0.00000143   -0.00000108    3.52334380       2
Ni    -0.00041503    3.55032171   -0.00937718       3
Ni    -0.00011063    0.01054862   -3.55181006       4
Ni    -3.53650482    0.00713547   -0.00659146       5
Ni     3.53630351    0.00712135   -0.00647500       6
Ni    -1.75983736   -1.75968821   -0.00017129       7
Ni     1.75998950   -1.75998080   -0.00000203       8
Ni    -1.75918852   -0.00076322    1.76167150       9
Ni     1.75912509   -0.00085839    1.76167225      10
Ni     0.00010610   -1.75987663   -1.78945731      11
Ni    -0.00016003    1.78821642    1.76167235      12
Ni    -0.00016953    1.77526878   -1.77550239      13
Ni    -1.76756494    0.00732249   -1.77728697      14
Ni     1.76741859    0.00743891   -1.77716619      15
Ni    -1.76740978    1.77616082   -0.00667956      16
Ni     1.76709644    1.77632178   -0.00647369      17
Ni     0.00000000    0.00000000    0.00000000      18
          18
Lattice="  35.4000   0.0000   0.0000   0.0000  35.4000   0.0000   0.0000   0.0000  35.4000 " ConfE="     -17785.8602" DelE="          1.0225"
Ni    -0.00026225   -3.45384663    0.02756925       1
Ni    -0.00033360   -0.02730786    3.45589182       2
Ni    -0.00047453    3.53785444   -0.00015807       3
Ni    -0.00038423    0.00106064   -3.53838562       4
Ni    -3.60307654    0.02112955   -0.02035264       5
Ni     3.60231035    0.02105015   -0.02030275       6
Ni    -1.93239689   -1.79345359   -0.04262218       7
Ni     1.93176810   -1.79357051   -0.04257640       8
Ni    -1.93239261    0.04285812    1.79502848       9
Ni     1.93171749    0.04278815    1.79509283      10
Ni    -0.00034044   -1.72326512   -1.70343753      11
Ni    -0.00040839    1.70321692    1.72479791      12
Ni    -0.00042045    1.74356837   -1.74350125      13
Ni    -1.77401612   -0.00346756   -1.74379323      14
Ni     1.77324562   -0.00351183   -1.74373134      15
Ni    -1.77365804    1.74334185    0.00425916      16
Ni     1.77280254    1.74328577    0.00430825      17
Ni    -0.00031261   -0.87538637    0.87622329      18
          18
Lattice="  35.4000   0.0000   0.0000   0.0000  35.4000   0.0000   0.0000   0.0000  35.4000 " ConfE="     -17786.8827" DelE="          0.0000"
Ni    -0.00040641   -3.53720661   -0.00977829       1
Ni    -0.00043632    0.01071580    3.53887066       2
Ni    -0.00051072    3.55845928   -0.00938549       3
Ni    -0.00046962    0.01038891   -3.55814714       4
Ni    -3.55160177    0.01070284   -0.00974742       5
Ni     3.55068250    0.01068692   -0.00975377       6
Ni    -1.76209120   -1.74893946   -0.00988352       7
Ni     1.76126388   -1.74898455   -0.00988691       8
Ni    -1.76225675    0.01082062    1.75043246       9
Ni     1.76137936    0.01080977    1.75043122      10
Ni    -0.00042858   -1.74842953   -1.76904037      11
Ni    -0.00046631    1.76956832    1.74975532      12
Ni    -0.00048258    1.76957331   -1.76895363      13
Ni    -1.76219752    0.01059797   -1.76988730      14
Ni     1.76127908    0.01058805   -1.76988455      15
Ni    -1.76209524    1.77033180   -0.00962609      16
Ni     1.76113104    1.77032760   -0.00962779      17
Ni    -0.00040934   -1.74792421    1.74927650      18
