          18
Lattice="  35.4000   0.0000   0.0000   0.0000  35.4000   0.0000   0.0000   0.0000  35.4000 " ConfE="     -17786.8830" DelE="          0.0000"
Ni     0.00000000    0.00000000   -3.52038005       1
Ni     3.52038005    0.00000000    0.00000000       2
Ni    -0.01041070    0.00000000    3.55122470       3
Ni    -3.55122463    0.00000000    0.01041070       4
Ni    -0.00737606   -3.53711242    0.00737606       5
Ni    -0.00737606    3.53711242    0.00737606       6
Ni     0.00000000   -1.76019003   -1.76019003       7
Ni     0.00000000    1.76019003   -1.76019003       8
Ni     1.76019003   -1.76019003    0.00000000       9
Ni     1.76019003    1.76019003    0.00000000      10
Ni    -1.78893364   -0.00000000   -1.76019003      11
Ni     1.76019003    0.00000000    1.78893364      12
Ni    -1.77553205    0.00000000    1.77553205      13
Ni    -1.77692240   -1.76756608    0.00737606      14
Ni    -1.77692240    1.76756608    0.00737606      15
Ni    -0.00737606   -1.76756608    1.77692240      16
Ni    -0.00737606    1.76756608    1.77692240      17
Ni     0.00000000    0.00000000    0.00000000      18
          18
Lattice="  35.4000   0.0000   0.0000   0.0000  35.4000   0.0000   0.0000   0.0000  35.4000 " ConfE="     -17785.8606" DelE="          1.0224"
Ni     0.02670736   -0.00002627   -3.45397389       1
Ni     3.45389811   -0.00004162   -0.02706619       2
Ni    -0.00134956   -0.00002724    3.53852379       3
Ni    -3.53882472   -0.00001863    0.00126809       4
Ni    -0.02154077   -3.60305638    0.02134444       5
Ni    -0.02148915    3.60298844    0.02131419       6
Ni    -0.04350282   -1.93229326   -1.79353084       7
Ni    -0.04348632    1.93221135   -1.79353770       8
Ni     1.79338050   -1.93226688    0.04318564       9
Ni     1.79341117    1.93218023    0.04316673      10
Ni    -1.70405027   -0.00004285   -1.72321348      11
Ni     1.72312667   -0.00004366    1.70368290      12
Ni    -1.74417268   -0.00003307    1.74396453      13
Ni    -1.74434263   -1.77367949   -0.00326385      14
Ni    -1.74431147    1.77360729   -0.00327062      15
Ni     0.00309726   -1.77362355    1.74401758      16
Ni     0.00312413    1.77355355    1.74399776      17
Ni     0.87492613   -0.00004313   -0.87520372      18
          18
Lattice="  35.4000   0.0000   0.0000   0.0000  35.4000   0.0000   0.0000   0.0000  35.4000 " ConfE="     -17786.8827" DelE="          0.0003"
Ni    -0.01090925   -0.00000488   -3.53723705       1
Ni     3.53721742   -0.00000531    0.01087469       2
Ni    -0.01071398   -0.00000438    3.55904435       3
Ni    -3.55907935   -0.00000402    0.01069248       4
Ni    -0.01097995   -3.55113406    0.01095130       5
Ni    -0.01097744    3.55112482    0.01094999       6
Ni    -0.01117342   -1.76184696   -1.74898736       7
Ni    -0.01117212    1.76183698   -1.74898789       8
Ni     1.74896351   -1.76184803    0.01113984       9
Ni     1.74896471    1.76183769    0.01113914      10
Ni    -1.77010297   -0.00000478   -1.74833722      11
Ni     1.74831452   -0.00000518    1.77006476      12
Ni    -1.76999901   -0.00000450    1.76996948      13
Ni    -1.77086345   -1.76167889    0.01084712      14
Ni    -1.77086177    1.76166950    0.01084646      15
Ni    -0.01087389   -1.76167681    1.77082792      16
Ni    -0.01087253    1.76166716    1.77082692      17
Ni     1.74740612   -0.00000541   -1.74743373      18
