          18
Lattice="  35.4000   0.0000   0.0000   0.0000  35.4000   0.0000   0.0000   0.0000  35.4000 " ConfE="     -17786.8830" DelE="          0.0000"
Ni     0.00000000    3.52038005    0.00000000       1
Ni     0.00000000    0.00000000   -3.52038005       2
Ni     0.00000000   -3.55122470    0.01041070       3
Ni     0.00000000   -0.01041070    3.55122470       4
Ni    -3.53711242   -0.00737606    0.00737606       5
Ni     3.53711242   -0.00737606    0.00737606       6
Ni    -1.76019003    1.76019003   -0.00000000       7
Ni     1.76019003    1.76019003    0.00000000       8
Ni    -1.76019003    0.00000000   -1.76019003       9
Ni     1.76019003    0.00000000   -1.76019003      10
Ni     0.00000000    1.76019003    1.78893364      11
Ni     0.00000000   -1.78893364   -1.76019003      12
Ni     0.00000000   -1.77553205    1.77553205      13
Ni    -1.76756608   -0.00737606    1.77692240      14
Ni     1.76756608   -0.00737606    1.77692240      15
Ni    -1.76756608   -1.77692240    0.00737606      16
Ni     1.76756608   -1.77692240    0.00737606      17
Ni     0.00000000    0.00000000    0.00000000      18
          18
Lattice="  35.4000   0.0000   0.0000   0.0000  35.4000   0.0000   0.0000   0.0000  35.4000 " ConfE="     -17785.8606" DelE="          1.0224"
Ni    -0.00002589    3.45397437   -0.02670762       1
Ni    -0.00004119    0.02706610   -3.45389765       2
Ni    -0.00002697   -3.53852399    0.00135000       3
Ni    -0.00001842   -0.00126759    3.53882470       4
Ni    -3.60305590   -0.02134447    0.02154094       5
Ni     3.60298869   -0.02131392    0.02148957       6
Ni    -1.93229289    1.79353118    0.04350271       7
Ni     1.93221176    1.79353822    0.04348631       8
Ni    -1.93226639   -0.04318577   -1.79338011       9
Ni     1.93218065   -0.04316662   -1.79341079      10
Ni    -0.00004251    1.72321408    1.70405013      11
Ni    -0.00004326   -1.70368302   -1.72312623      12
Ni    -0.00003279   -1.74396455    1.74417298      13
Ni    -1.77367892    0.00326409    1.74434245      14
Ni     1.77360738    0.00327104    1.74431150      15
Ni    -1.77362316   -1.74401783   -0.00309695      16
Ni     1.77355378   -1.74399770   -0.00312369      17
Ni    -0.00004269    0.87520314   -0.87492514      18
          18
Lattice="  35.4000   0.0000   0.0000   0.0000  35.4000   0.0000   0.0000   0.0000  35.4000 " ConfE="     -17786.8827" DelE="          0.0003"
Ni    -0.00000480    3.53723718    0.01090920       1
Ni    -0.00000522   -0.01087466   -3.53721730       2
Ni    -0.00000436   -3.55904436    0.01071405       3
Ni    -0.00000402   -0.01069234    3.55907936       4
Ni    -3.55113404   -0.01095129    0.01097994       5
Ni     3.55112490   -0.01094993    0.01097753       6
Ni    -1.76184694    1.74898746    0.01117340       7
Ni     1.76183710    1.74898801    0.01117214       8
Ni    -1.76184796   -0.01113983   -1.74896343       9
Ni     1.76183778   -0.01113910   -1.74896460      10
Ni    -0.00000473    1.74833735    1.77010289      11
Ni    -0.00000512   -1.77006475   -1.74831443      12
Ni    -0.00000448   -1.76996942    1.76999903      13
Ni    -1.76167885   -0.01084704    1.77086338      14
Ni     1.76166953   -0.01084636    1.77086176      15
Ni    -1.76167679   -1.77082794    0.01087393      16
Ni     1.76166721   -1.77082689    0.01087261      17
Ni    -0.00000533    1.74743379   -1.74740605      18
