          18
Lattice="  35.4000   0.0000   0.0000   0.0000  35.4000   0.0000   0.0000   0.0000  35.4000 " ConfE="     -17786.8827" DelE="          0.0000"
Ni    -3.53640191   -0.00711765   -0.00642152       1
Ni    -0.00000137   -0.00000048    3.52368392       2
Ni     3.53585289   -0.00756827   -0.00651252       3
Ni    -0.00027547   -0.01070024   -3.55176874       4
Ni    -0.00025524   -3.55066207   -0.00942448       5
Ni    -0.00029947    3.51981534    0.00017018       6
Ni    -1.76725076   -1.77626045   -0.00642160       7
Ni    -1.76013683    1.76012714   -0.00000110       8
Ni    -0.00026406   -1.78824970    1.76184211       9
Ni    -1.75857980    0.00155331    1.76184149      10
Ni    -1.76751710   -0.00738201   -1.77706487      11
Ni     1.75892955    0.00065008    1.76184218      12
Ni     1.76701098   -0.00772514   -1.77712063      13
Ni    -0.00026665   -1.77554031   -1.77550432      14
Ni    -0.00019337    1.75993871   -1.78928713      15
Ni     1.76682733   -1.77666174   -0.00642324      16
Ni     1.75969003    1.75983454    0.00016815      17
Ni     0.00000000    0.00000000    0.00000000      18
          18
Lattice="  35.4000   0.0000   0.0000   0.0000  35.4000   0.0000   0.0000   0.0000  35.4000 " ConfE="     -17785.8602" DelE="          1.0226"
Ni    -3.60318585   -0.02178181   -0.02003057       1
Ni    -0.00054024    0.02661927    3.45619916       2
Ni     3.60206949   -0.02197059   -0.02002761       3
Ni    -0.00057446   -0.00183738   -3.53811925       4
Ni    -0.00057413   -3.53865754    0.00012948       5
Ni    -0.00057229    3.45311339    0.02789910       6
Ni    -1.77368022   -1.74397832    0.00460135       7
Ni    -1.93261396    1.79283743   -0.04228919       8
Ni    -0.00052126   -1.70395789    1.72513870       9
Ni    -1.93255658   -0.04346298    1.79538549      10
Ni    -1.77412692    0.00278924   -1.74346518      11
Ni     1.93150667   -0.04360675    1.79539268      12
Ni     1.77302750    0.00269493   -1.74345154      13
Ni    -0.00055145   -1.74435435   -1.74323907      14
Ni    -0.00053711    1.72255500   -1.70313676      15
Ni     1.77262690   -1.74414105    0.00459432      16
Ni     1.93156558    1.79275949   -0.04229410      17
Ni    -0.00050611    0.87465438    0.87648613      18
          18
Lattice="  35.4000   0.0000   0.0000   0.0000  35.4000   0.0000   0.0000   0.0000  35.4000 " ConfE="     -17786.8827" DelE="          0.0000"
Ni    -3.55179260   -0.01162937   -0.00950740       1
Ni    -0.00070536   -0.01160499    3.53904232       2
Ni     3.55033223   -0.01171895   -0.00951859       3
Ni    -0.00074322   -0.01146610   -3.55795100       4
Ni    -0.00073692   -3.55952637   -0.00922185       5
Ni    -0.00073448    3.53622296   -0.00951122       6
Ni    -1.76229564   -1.77129763   -0.00943114       7
Ni    -1.76234065    1.74807746   -0.00972583       8
Ni    -0.00070911   -1.77068090    1.74991740       9
Ni    -1.76243142   -0.01179823    1.75068120      10
Ni    -1.76244579   -0.01159061   -1.76966044      11
Ni     1.76101994   -0.01185097    1.75068247      12
Ni     1.76098525   -0.01163785   -1.76966402      13
Ni    -0.00072887   -1.77061039   -1.76875140      14
Ni    -0.00072883    1.74740469   -1.76894858      15
Ni     1.76086607   -1.77137323   -0.00943725      16
Ni     1.76088909    1.74803682   -0.00972890      17
Ni    -0.00070857    1.74675250    1.74923888      18
