          18
Lattice="  35.4000   0.0000   0.0000   0.0000  35.4000   0.0000   0.0000   0.0000  35.4000 " ConfE="     -17786.8827" DelE="          0.0000"
Ni     0.00009807    0.00000134    3.51830810       1
Ni     3.51750600   -0.00000092    0.00090609       2
Ni    -0.01070798   -0.00000055   -3.55154433       3
Ni    -3.55086060    0.00000120   -0.01158505       4
Ni    -0.00808241   -3.53896072   -0.00837676       5
Ni    -0.00808241    3.53896137   -0.00837733       6
Ni    -0.00076201   -1.76167264    1.75918518       7
Ni    -0.00076237    1.76167425    1.75918483       8
Ni     1.75892872   -1.76184232   -0.00064910       9
Ni     1.75892846    1.76184126   -0.00064917      10
Ni    -1.78897952    0.00000120    1.75902714      11
Ni     1.75919291   -0.00000093   -1.78890065      12
Ni    -1.77525176    0.00000019   -1.77597905      13
Ni    -1.77692378   -1.76835287   -0.00822125      14
Ni    -1.77692369    1.76835422   -0.00822162      15
Ni    -0.00789698   -1.76826460   -1.77731391      16
Ni    -0.00789690    1.76826396   -1.77731400      17
Ni     0.00000000    0.00000000    0.00000000      18
          18
Lattice="  35.4000   0.0000   0.0000   0.0000  35.4000   0.0000   0.0000   0.0000  35.4000 " ConfE="     -17785.8614" DelE="          1.0214"
Ni     0.02668302   -0.00003918    3.45227704       1
Ni     3.45289276   -0.00002975    0.02603309       2
Ni    -0.00175249    0.00000739   -3.53964350       3
Ni    -3.53877431    0.00000339   -0.00262696       4
Ni    -0.02191204   -3.60380439   -0.02266293       5
Ni    -0.02192381    3.60378027   -0.02265529       6
Ni    -0.04367545   -1.93265268    1.79201988       7
Ni    -0.04369570    1.93259910    1.79201422       8
Ni     1.79267039   -1.93264090   -0.04437131       9
Ni     1.79265081    1.93259339   -0.04437414      10
Ni    -1.70401381   -0.00001158    1.72158806      11
Ni     1.72225754   -0.00000949   -1.70472843      12
Ni    -1.74415211    0.00000113   -1.74502624      13
Ni    -1.74447073   -1.77406121    0.00192182      14
Ni    -1.74448482    1.77405942    0.00191558      15
Ni     0.00269628   -1.77410642   -1.74530844      16
Ni     0.00268868    1.77410620   -1.74531712      17
Ni     0.87446724   -0.00002919    0.87382360      18
          18
Lattice="  35.4000   0.0000   0.0000   0.0000  35.4000   0.0000   0.0000   0.0000  35.4000 " ConfE="     -17786.8829" DelE="         -0.0002"
Ni    -0.01065909    0.00000186    3.53709754       1
Ni     3.53826547    0.00000180   -0.01182893       2
Ni    -0.01072285    0.00000140   -3.56081732       3
Ni    -3.55960593    0.00000146   -0.01192653       4
Ni    -0.01069137   -3.54945319   -0.01187537       5
Ni    -0.01069142    3.54945664   -0.01187551       6
Ni    -0.01069209   -1.76029367    1.74819034       7
Ni    -0.01069154    1.76029655    1.74819034       8
Ni     1.74935827   -1.76028914   -0.01186636       9
Ni     1.74935831    1.76029196   -0.01186585      10
Ni    -1.77082018    0.00000170    1.74811086      11
Ni     1.74928772    0.00000164   -1.77200349      12
Ni    -1.77057808    0.00000164   -1.77178638      13
Ni    -1.77084205   -1.76051270   -0.01189413      14
Ni    -1.77084207    1.76051579   -0.01189414      15
Ni    -0.01070265   -1.76051468   -1.77204220      16
Ni    -0.01070259    1.76051772   -1.77204224      17
Ni     1.74948105    0.00000207    1.74831491      18
