          32
Lattice="   7.1928   0.0000   0.0000   0.0000   7.1928   0.0000   0.0000   0.0000   7.1928 " ConfE="       -142.6394" DelE="          0.0000"
Ni    -1.76721969    1.76721969   -1.76721969       1
Ni    -1.76721969   -3.21279377   -1.76721969       2
Ni     3.21279379    1.76721969   -1.76721969       3
Ni    -1.76721969    1.76721969    3.21279379       4
Ni    -1.76721969   -0.44552928   -1.76721969       5
Ni     0.44552929    1.76721969   -1.76721969       6
Ni    -1.76721969    1.76721969    0.44552929       7
Ni     3.58864503   -1.82916152    1.82916154       8
Ni     1.82916154   -1.82916152    3.58864503       9
Ni     1.82916154   -3.58864502    1.82916154      10
Ni    -1.76721969   -1.82916152    3.51613308      11
Ni     3.51613308   -1.82916152   -1.76721969      12
Ni     1.82916154   -3.51613307   -1.76721969      13
Ni    -1.76721969   -3.51613307    1.82916154      14
Ni     1.82916154    1.76721969    3.51613308      15
Ni     3.51613308    1.76721969    1.82916154      16
Ni     0.06967804   -1.82916152    1.82916154      17
Ni     1.82916154   -1.82916152    0.06967804      18
Ni     1.82916154   -0.06967803    1.82916154      19
Ni     0.00000000    0.00000000    0.00000000      20
Ni    -1.76721969   -1.82916152    0.14219000      21
Ni     0.14219000   -1.82916152   -1.76721969      22
Ni     1.82916154   -0.14218998   -1.76721969      23
Ni    -1.76721969   -0.14218998    1.82916154      24
Ni     1.82916154    1.76721969    0.14219000      25
Ni     0.14219000    1.76721969    1.82916154      26
Ni     0.00000000    3.53443938   -0.00000000      27
Ni    -3.53443938   -0.00000000    0.00000000      28
Ni     0.00000000   -0.00000000   -3.53443938      29
Ni    -3.53443938    3.53443938    0.00000000      30
Ni     0.00000000    3.53443938   -3.53443938      31
Ni    -3.53443938   -0.00000000   -3.53443938      32
          32
Lattice="   7.1928   0.0000   0.0000   0.0000   7.1928   0.0000   0.0000   0.0000   7.1928 " ConfE="       -140.7869" DelE="          1.8525"
Ni    -2.03713013    1.82513526   -2.07597508       1
Ni    -1.60434922   -3.15960731   -1.55681417       2
Ni     2.86933120    1.62238974   -1.94947070       3
Ni    -1.55904780    1.87658973    2.85117626       4
Ni    -1.68306741   -0.40638656   -1.59214556       5
Ni     0.26630299    1.79328574   -1.64500218       6
Ni    -1.48468097    1.88526929    0.23348663       7
Ni     3.49624511   -1.97702801    2.26917709       8
Ni     1.88580965   -0.94247934   -3.44634119       9
Ni     1.75657724    3.57880886    2.07704880      10
Ni    -1.75152183   -1.83978324   -3.55285938      11
Ni     3.51391968   -1.74807148   -1.95160661      12
Ni     1.83276237   -3.49265198   -1.94640816      13
Ni    -1.69846935   -3.30360140    1.69854180      14
Ni     1.65096344    1.56244441    3.32777501      15
Ni     3.58487719    1.94171803    1.78300517      16
Ni     0.24191336   -1.74670357    2.24752470      17
Ni     2.13887019   -2.14345936    0.14111921      18
Ni     2.23608138   -0.12891907    1.49413212      19
Ni    -0.19995320   -0.91267835    0.14720096      20
Ni    -2.56299688   -1.78868780    0.15057856      21
Ni     0.23148494   -1.81864200   -2.02838649      22
Ni     1.65603644   -0.15508726   -1.10994309      23
Ni    -1.89948860   -0.22379064    1.74964595      24
Ni     1.78828268    2.01407870    0.17516513      25
Ni     0.20514744    1.01214054    1.55434891      26
Ni     0.11903846   -3.41802088    0.09193198      27
Ni    -3.36807279    0.45428704   -0.16245637      28
Ni    -0.28081502    0.14697053   -3.40198810      29
Ni    -3.45128233    3.23191381   -0.31264331      30
Ni    -0.07588881    3.44345178   -3.47989690      31
Ni    -3.23165568    0.21647869   -3.54011447      32
          32
Lattice="   7.1928   0.0000   0.0000   0.0000   7.1928   0.0000   0.0000   0.0000   7.1928 " ConfE="       -142.6273" DelE="          0.0121"
Ni    -1.56781890    1.85530951   -1.76376292       1
Ni    -1.45331784   -3.06066500   -0.98913316       2
Ni     2.48874792    1.68827136   -2.51524549       3
Ni    -1.38526669    1.77226215    2.56097978       4
Ni    -1.47296419   -0.50074143   -1.16908782       5
Ni     0.66177763    2.79797643   -1.31011714       6
Ni    -2.32549613    2.31233542    0.49219210       7
Ni     3.52103060   -1.64380815    2.68094635       8
Ni     1.94250430   -0.37720750   -3.46042520       9
Ni     2.97482328    3.48741768    1.68938155      10
Ni    -1.69141531   -1.86055722   -3.15019048      11
Ni     3.33675025   -1.62716824   -1.95402518      12
Ni     2.02471992   -3.25129562   -3.27677545      13
Ni    -1.76794669   -2.97911127    1.88391107      14
Ni     1.14971818    1.70118243    2.62465516      15
Ni     3.48693499    1.07783631    2.11141618      16
Ni     0.41859121   -1.85642437    2.64872913      17
Ni     1.85873974   -2.50189284   -0.13508346      18
Ni     1.87183656   -0.44441676    1.19744788      19
Ni    -0.20645128   -1.55448174    0.40728841      20
Ni    -3.07945020   -1.73998952    0.32267244      21
Ni     0.46780973   -1.93787859   -2.03300258      22
Ni     1.24696259    0.07288913   -1.13925753      23
Ni    -1.68861179   -0.46864200    1.92885234      24
Ni     2.04025380    1.86991754    0.31157306      25
Ni    -0.27048332    0.97860729    0.48403695      26
Ni     0.23928017    3.31672328    1.10137791      27
Ni    -3.53513589    0.48901365   -0.62057252      28
Ni    -0.29909819    0.24803850   -3.15558037      29
Ni     3.46043342    3.28639348   -1.10655275      30
Ni    -0.33253393    3.35247323   -3.36863317      31
Ni    -2.80902385    0.29428616   -3.07380453      32
