          32
Lattice="   7.1928   0.0000   0.0000   0.0000   7.1928   0.0000   0.0000   0.0000   7.1928 " ConfE="       -142.6394" DelE="          0.0000"
Ni     1.76721969   -1.76721969    1.76721969       1
Ni     1.76721969   -1.76721969   -3.21279377       2
Ni    -3.21279377   -1.76721969    1.76721969       3
Ni     1.76721969    3.21279379    1.76721969       4
Ni     1.76721969   -1.76721969   -0.44552928       5
Ni    -0.44552928   -1.76721969    1.76721969       6
Ni     1.76721969    0.44552929    1.76721969       7
Ni    -3.58864502    1.82916154   -1.82916152       8
Ni    -1.82916152    3.58864503   -1.82916152       9
Ni    -1.82916152    1.82916154   -3.58864502      10
Ni     1.76721969    3.51613308   -1.82916152      11
Ni    -3.51613307   -1.76721969   -1.82916152      12
Ni    -1.82916152   -1.76721969   -3.51613307      13
Ni     1.76721969    1.82916154   -3.51613307      14
Ni    -1.82916152    3.51613308    1.76721969      15
Ni    -3.51613307    1.82916154    1.76721969      16
Ni    -0.06967803    1.82916154   -1.82916152      17
Ni    -1.82916152    0.06967804   -1.82916152      18
Ni    -1.82916152    1.82916154   -0.06967803      19
Ni     0.00000000    0.00000000    0.00000000      20
Ni     1.76721969    0.14219000   -1.82916152      21
Ni    -0.14218998   -1.76721969   -1.82916152      22
Ni    -1.82916152   -1.76721969   -0.14218998      23
Ni     1.76721969    1.82916154   -0.14218998      24
Ni    -1.82916152    0.14219000    1.76721969      25
Ni    -0.14218998    1.82916154    1.76721969      26
Ni     0.00000000    0.00000000    3.53443938      27
Ni     3.53443938   -0.00000000    0.00000000      28
Ni    -0.00000000   -3.53443938   -0.00000000      29
Ni     3.53443938   -0.00000000    3.53443938      30
Ni    -0.00000000   -3.53443938    3.53443938      31
Ni     3.53443938   -3.53443938   -0.00000000      32
          32
Lattice="   7.1928   0.0000   0.0000   0.0000   7.1928   0.0000   0.0000   0.0000   7.1928 " ConfE="       -140.7872" DelE="          1.8522"
Ni     2.03481244   -2.07530665    1.82438830       1
Ni     1.60608002   -1.55652319   -3.15893569       2
Ni    -2.87158441   -1.94862389    1.62286635       3
Ni     1.55944464    2.85102729    1.87670305       4
Ni     1.68562717   -1.59325961   -0.40923854       5
Ni    -0.26843153   -1.64544789    1.79263755       6
Ni     1.48291279    0.23523454    1.88432244       7
Ni    -3.49493005    2.27023518   -1.97652060       8
Ni    -1.88418974   -3.44650204   -0.93997240       9
Ni    -1.75443037    2.07678882    3.57803433      10
Ni     1.75077995   -3.55443024   -1.84063880      11
Ni    -3.51269749   -1.95386518   -1.74827431      12
Ni    -1.83279375   -1.94840113   -3.49308121      13
Ni     1.69915373    1.69777498   -3.30322737      14
Ni    -1.65214445    3.32951922    1.56266671      15
Ni    -3.58402361    1.78428936    1.94237358      16
Ni    -0.24293471    2.24533262   -1.74626920      17
Ni    -2.13995563    0.14000717   -2.14556139      18
Ni    -2.23752000    1.49341178   -0.12929916      19
Ni     0.20115732    0.14596104   -0.90990009      20
Ni     2.56616547    0.15079009   -1.78864815      21
Ni    -0.23166310   -2.02728616   -1.81881470      22
Ni    -1.65840936   -1.10915452   -0.15569212      23
Ni     1.89931440    1.74938205   -0.22364368      24
Ni    -1.78858818    0.17476595    2.01481644      25
Ni    -0.20730101    1.55619631    1.01196276      26
Ni    -0.11860862    0.09140757   -3.41640260      27
Ni     3.36681969   -0.16150079    0.45539511      28
Ni     0.28214354   -3.40151927    0.14653382      29
Ni     3.44963737   -0.31088667    3.22982162      30
Ni     0.07790486   -3.47928236    3.44421182      31
Ni     3.23115851   -3.53973749    0.21627029      32
          32
Lattice="   7.1928   0.0000   0.0000   0.0000   7.1928   0.0000   0.0000   0.0000   7.1928 " ConfE="       -142.6274" DelE="          0.0120"
Ni     1.56214036   -1.76588711    1.85456730       1
Ni     1.46167689   -0.99674901   -3.05856364       2
Ni    -2.48201333   -2.51930953    1.69330068       3
Ni     1.39249787    2.56529747    1.77514787       4
Ni     1.47189057   -1.16950756   -0.49785541       5
Ni    -0.66074209   -1.30342460    2.80742589       6
Ni     2.32095905    0.48830073    2.30547325       7
Ni    -3.52058928    2.67728896   -1.64304787       8
Ni    -1.94532521   -3.45386273   -0.38046684       9
Ni    -2.98632809    1.68924591    3.48030798      10
Ni     1.68613031   -3.15507991   -1.85532861      11
Ni    -3.34489978   -1.95680348   -1.63785184      12
Ni    -2.02401210   -3.28514736   -3.24951570      13
Ni     1.76880188    1.88226975   -2.98098100      14
Ni    -1.14820486    2.62264123    1.69357951      15
Ni    -3.48752266    2.10655137    1.06930841      16
Ni    -0.41773930    2.64865181   -1.85247727      17
Ni    -1.86217648   -0.12753573   -2.49877006      18
Ni    -1.86489588    1.19817194   -0.44307438      19
Ni     0.21025636    0.40527840   -1.55967616      20
Ni     3.07741322    0.32258458   -1.73399117      21
Ni    -0.47077851   -2.03066831   -1.93946214      22
Ni    -1.23897954   -1.14028176    0.07774603      23
Ni     1.68585250    1.92969166   -0.46780695      24
Ni    -2.03851085    0.31310160    1.86808229      25
Ni     0.26927564    0.49059621    0.97804099      26
Ni    -0.24378470    1.11003011    3.31782928      27
Ni     3.54137940   -0.63101844    0.48845424      28
Ni     0.29881112   -3.15934367    0.24735789      29
Ni    -3.45524740   -1.09996798    3.28092595      30
Ni     0.32935937   -3.36916390    3.35232800      31
Ni     2.81194968   -3.07252451    0.29588662      32
