          17
Lattice="   7.1928   0.0000   0.0000   0.0000   7.1928   0.0000   0.0000   0.0000   7.1928 " ConfE="       -142.6394" DelE="          0.0000"
Ni    -2.21274898    2.21274898    0.00000000       1
Ni    -2.21274898   -2.21274897   -0.00000000       2
Ni    -2.21274898    0.00000000    2.21274898       3
Ni    -2.21274898    0.00000000   -2.21274897       4
Ni    -2.21274898    0.00000000    0.00000000       5
Ni     2.76726450    0.00000000    0.00000000       6
Ni    -0.44552929    1.76721969    1.76721969       7
Ni    -0.44552929    1.76721969   -1.76721969       8
Ni    -0.44552929   -1.76721969    1.76721969       9
Ni    -0.44552929   -1.76721969   -1.76721969      10
Ni     1.38363225    1.90940969    0.00000000      11
Ni     1.38363225    0.00000000   -1.90940967      12
Ni     1.38363225    0.00000000    1.90940969      13
Ni     1.38363225   -1.90940967    0.00000000      14
Ni    -0.30333930   -3.59638122    0.00000000      15
Ni    -0.30333930    0.00000000   -3.59638122      16
Ni     0.00000000    0.00000000    0.00000000      17
          17
Lattice="   7.1928   0.0000   0.0000   0.0000   7.1928   0.0000   0.0000   0.0000   7.1928 " ConfE="       -141.6177" DelE="          1.0217"
Ni    -2.25948706    2.47594458    0.00041357       1
Ni    -2.37246941   -1.90266498    0.00001207       2
Ni    -2.32506386   -0.03870053    2.02663578       3
Ni    -2.32592373   -0.03800475   -2.02817269       4
Ni    -1.46025665    0.49071338   -0.00134854       5
Ni     3.29725033    0.19669469   -0.00020412       6
Ni    -0.49723046    1.82754635    1.79260496       7
Ni    -0.49698979    1.82799924   -1.79310905       8
Ni    -0.51179640   -1.85216291    2.02066453       9
Ni    -0.51253588   -1.85126577   -2.01921279      10
Ni     1.18475471    1.65561936   -0.00000048      11
Ni     1.36127471   -0.02549612   -1.79604641      12
Ni     1.36167117   -0.02524382    1.79654312      13
Ni     2.02505186   -1.79749583   -0.00035668      14
Ni    -0.27730567   -3.42205360    0.00018824      15
Ni    -0.41182544    0.05779367    3.59635672      16
Ni     0.04737738   -0.98476350    0.00124821      17
          17
Lattice="   7.1928   0.0000   0.0000   0.0000   7.1928   0.0000   0.0000   0.0000   7.1928 " ConfE="       -142.6393" DelE="          0.0001"
Ni    -2.38009198    1.85375056   -0.00000021       1
Ni    -2.67426547   -1.74359225    0.00000366       2
Ni    -2.23798381    0.02536195    1.76968149       3
Ni    -2.23798130    0.02536069   -1.76968180       4
Ni    -0.47483010    0.46919316   -0.00000021       5
Ni     3.12934303    0.16624477   -0.00000140       6
Ni    -0.46866849    1.85268482    1.90915808       7
Ni    -0.46866782    1.85268737   -1.90915709       8
Ni    -0.47196595   -1.74404060    2.21279555       9
Ni    -0.47196841   -1.74403811   -2.21280893      10
Ni     1.43791787    1.85208229   -0.00000112      11
Ni     1.29709442    0.02177928   -1.76534264      12
Ni     1.29709649    0.02178261    1.76534244      13
Ni     1.75185602   -1.74386448    0.00000291      14
Ni    -0.47241118    3.23710056    0.00000409      15
Ni    -0.46842222    0.16554012    3.59637859      16
Ni    -0.45869117   -1.74308551   -0.00000934      17
