          17
Lattice="   7.1928   0.0000   0.0000   0.0000   7.1928   0.0000   0.0000   0.0000   7.1928 " ConfE="       -142.6394" DelE="          0.0000"
Ni     0.00000000    2.21274897    2.21274898       1
Ni     0.00000000    2.21274897   -2.21274897       2
Ni     2.21274898    2.21274897    0.00000000       3
Ni    -2.21274897    2.21274897    0.00000000       4
Ni     0.00000000    2.21274897    0.00000000       5
Ni     0.00000000   -2.76726450    0.00000000       6
Ni     1.76721969    0.44552928    1.76721969       7
Ni    -1.76721969    0.44552928    1.76721969       8
Ni     1.76721969    0.44552928   -1.76721969       9
Ni    -1.76721969    0.44552928   -1.76721969      10
Ni     0.00000000   -1.38363225    1.90940969      11
Ni    -1.90940967   -1.38363225    0.00000000      12
Ni     1.90940969   -1.38363225    0.00000000      13
Ni     0.00000000   -1.38363225   -1.90940967      14
Ni     0.00000000    0.30333930   -3.59638122      15
Ni    -3.59638122    0.30333930    0.00000000      16
Ni     0.00000000    0.00000000    0.00000000      17
          17
Lattice="   7.1928   0.0000   0.0000   0.0000   7.1928   0.0000   0.0000   0.0000   7.1928 " ConfE="       -141.6180" DelE="          1.0214"
Ni     0.02878745    2.33434572    2.04108038       1
Ni     0.02828047    2.33499791   -2.04259063       2
Ni     1.90661680    2.37938889    0.00007725       3
Ni    -2.43610620    2.24227299    0.00048991       4
Ni    -0.43418691    1.47248809   -0.00126199       5
Ni    -0.20696052   -3.28670836   -0.00015857       6
Ni     1.84123678    0.52233988    2.00073483       7
Ni    -1.82116386    0.50246361    1.78621517       8
Ni     1.84040230    0.52282485   -1.99945190       9
Ni    -1.82168673    0.50237514   -1.78666760      10
Ni     0.01773953   -1.36834744    1.80755041      11
Ni    -1.65782437   -1.17959317   -0.00008617      12
Ni     1.81685238   -2.06615858   -0.00035171      13
Ni     0.01810943   -1.36800589   -1.80707163      14
Ni    -0.05740635    0.41343764    3.59634741      15
Ni     3.41112869    0.28797728    0.00018712      16
Ni     0.96494374   -0.10774459    0.00111885      17
          17
Lattice="   7.1928   0.0000   0.0000   0.0000   7.1928   0.0000   0.0000   0.0000   7.1928 " ConfE="       -142.6393" DelE="          0.0001"
Ni    -0.02265061    2.23505281    1.76631975       1
Ni    -0.02277264    2.23513916   -1.76650531       2
Ni     1.74514948    2.68555702   -0.00005151       3
Ni    -1.85388347    2.37855985   -0.00000605       4
Ni    -0.47175344    0.46837614   -0.00008644       5
Ni    -0.16456120   -3.12715170   -0.00012110       6
Ni     1.74455592    0.46683547    2.21294917       7
Ni    -1.85351836    0.46948501    1.90975082       8
Ni     1.74456111    0.46698148   -2.21270175       9
Ni    -1.85364281    0.46949839   -1.90976159      10
Ni    -0.02452931   -1.29800210    1.76777368      11
Ni    -1.85191957   -1.44161375    0.00006657      12
Ni     1.74384706   -1.73907208    0.00004754      13
Ni    -0.02452775   -1.29783233   -1.76770120      14
Ni    -0.16525593    0.46920035   -3.59633189      15
Ni    -3.23775067    0.46659529    0.00001489      16
Ni     1.74088577    0.47468670    0.00016392      17
