          17
Lattice="   7.1928   0.0000   0.0000   0.0000   7.1928   0.0000   0.0000   0.0000   7.1928 " ConfE="       -142.6394" DelE="          0.0000"
Ni    -2.21279566   -2.21920455    0.00000019       1
Ni    -2.21279432    2.20627976    0.00000022       2
Ni    -2.21280013   -0.00000115    2.21277478       3
Ni    -2.21279988   -0.00000094   -2.21277058       4
Ni    -2.21276801   -0.00815620    0.00000247       5
Ni     2.76721711   -0.00000211   -0.00000003       6
Ni    -0.44668244   -1.76882453    1.76610813       7
Ni    -0.44668194   -1.76882529   -1.76610717       8
Ni    -0.44463792    1.76545110    1.76815353       9
Ni    -0.44463726    1.76545192   -1.76815247      10
Ni     1.38359570   -1.91102843    0.00000053      11
Ni     1.38359585   -0.00300716   -1.90964153      12
Ni     1.38359596   -0.00300707    1.90964237      13
Ni     1.38359555    1.90812641    0.00000066      14
Ni    -0.30367372    3.59328738    0.00000089      15
Ni    -0.30315345   -0.00300751   -3.59638027      16
Ni     0.00000000    0.00000000    0.00000000      17
          17
Lattice="   7.1928   0.0000   0.0000   0.0000   7.1928   0.0000   0.0000   0.0000   7.1928 " ConfE="       -141.6179" DelE="          1.0214"
Ni    -2.33214627   -2.03989290   -0.03153637       1
Ni    -2.33202194    2.03496432   -0.03161181       2
Ni    -2.24753148   -0.00212652    2.44850057       3
Ni    -2.37641829   -0.00225689   -1.90451552       4
Ni    -1.46867379   -0.00261506    0.45175046       5
Ni     3.29010092   -0.00233249    0.20420826       6
Ni    -0.50102990   -1.79077647    1.82345170       7
Ni    -0.51956903   -2.00825532   -1.84420250       8
Ni    -0.50108202    1.78610445    1.82330397       9
Ni    -0.51949579    2.00405446   -1.84437429      10
Ni     1.36623894   -1.80609220   -0.02045235      11
Ni     2.05413439   -0.00238794   -1.81069795      12
Ni     1.18070030   -0.00228625    1.65679679      13
Ni     1.36635598    1.80169836   -0.02034340      14
Ni    -0.41307888    3.59409987    0.05742812      15
Ni    -0.28461244   -0.00220870   -3.41431058      16
Ni     0.08962683   -0.00194746   -0.97106605      17
          17
Lattice="   7.1928   0.0000   0.0000   0.0000   7.1928   0.0000   0.0000   0.0000   7.1928 " ConfE="       -142.6393" DelE="          0.0000"
Ni    -2.23527246   -1.76818030    0.02299602       1
Ni    -2.23527087    1.76364071    0.02299660       2
Ni    -2.37765903   -0.00226635    1.85416416       3
Ni    -2.68563347   -0.00226904   -1.74410964       4
Ni    -0.46773514   -0.00226908    0.47055528       5
Ni     3.12684714   -0.00226867    0.16548961       6
Ni    -0.46913672   -1.91183796    1.85308860       7
Ni    -0.46735655   -2.21530864   -1.74479999       8
Ni    -0.46913371    1.90729790    1.85308920       9
Ni    -0.46735375    2.21076867   -1.74480076      10
Ni     1.29827347   -1.76980949    0.02415881      11
Ni     1.73925119   -0.00227216   -1.74323104      12
Ni     1.44166610   -0.00226933    1.85201387      13
Ni     1.29827388    1.76526933    0.02415765      14
Ni    -0.46923014    3.59411053    0.16529900      15
Ni    -0.46582032   -0.00226906    3.23755009      16
Ni    -0.47458160   -0.00227016   -1.74187508      17
