          15
Lattice="   7.1928   0.0000   0.0000   0.0000   7.1928   0.0000   0.0000   0.0000   7.1928 " ConfE="       -142.6394" DelE="          0.0000"
Ni    -1.76818060    1.77361699   -1.76815976       1
Ni    -1.76613661   -1.76067944   -1.76611656       2
Ni    -1.76818004    1.77361620    1.76815585       3
Ni     1.76813075    1.77360811   -1.76815494       4
Ni     1.76813009    1.77360730    1.76815105       5
Ni     1.76608607   -1.76066909   -1.76610965       6
Ni    -1.76613636   -1.76067888    1.76611271       7
Ni     1.76608557   -1.76066833    1.76610565       8
Ni    -2.21277733    0.00815408   -0.00000250       9
Ni    -0.00003187    0.00815526   -2.21277305      10
Ni    -0.00002631    2.21443596   -0.00000225      11
Ni    -0.00002765   -2.21104835   -0.00000229      12
Ni    -0.00003211    0.00815505    2.21277231      13
Ni     2.21276801    0.00815620   -0.00000247      14
Ni     0.00000000    0.00000000    0.00000000      15
          15
Lattice="   7.1928   0.0000   0.0000   0.0000   7.1928   0.0000   0.0000   0.0000   7.1928 " ConfE="       -142.4883" DelE="          0.1511"
Ni    -1.82822925    1.83414835   -1.85300281       1
Ni    -1.82825127   -1.82225104   -1.85286742       2
Ni    -1.69397956    1.69988956    1.74359961       3
Ni     1.82817217    1.83417280   -1.85304647       4
Ni     1.69397601    1.69995481    1.74361032       5
Ni     1.82815866   -1.82224316   -1.85291647       6
Ni    -1.69412978   -1.68815352    1.74355972       7
Ni     1.69403936   -1.68813172    1.74358238       8
Ni    -2.05175383    0.00614423   -0.16175952       9
Ni    -0.00006420    0.00605806   -1.85168108      10
Ni    -0.00001745    2.05733508   -0.16150167      11
Ni    -0.00006255   -2.04617579   -0.16221000      12
Ni     0.00012468    0.00548222    2.80812310      13
Ni     2.05175644    0.00616911   -0.16195827      14
Ni     0.00004966    0.00532840    0.67973027      15
          15
Lattice="   7.1928   0.0000   0.0000   0.0000   7.1928   0.0000   0.0000   0.0000   7.1928 " ConfE="       -142.6394" DelE="         -0.0000"
Ni    -1.76777640    1.77364358   -1.93785737       1
Ni    -1.76776197   -1.76185814   -1.93786880       2
Ni    -1.76660067    1.77243519    1.72055896       3
Ni     1.76772734    1.77364104   -1.93785656       4
Ni     1.76655067    1.77242416    1.72056388       5
Ni     1.76771887   -1.76185706   -1.93786392       6
Ni    -1.76653198   -1.76065033    1.72059788       7
Ni     1.76648991   -1.76064368    1.72059694       8
Ni    -1.90919868    0.00587266   -0.10928395       9
Ni    -0.00002414    0.00590190   -1.49509791      10
Ni    -0.00002694    1.91507013   -0.10928337      11
Ni    -0.00001576   -1.90327217   -0.10927609      12
Ni    -0.00002293    0.00583937    3.48399628      13
Ni     1.90915128    0.00588640   -0.10928307      14
Ni    -0.00002673    0.00592503    1.27214666      15
